
  EPA STORM WATER MANAGEMENT MODEL - VERSION 5.2 (Build 5.2.4)
  PYSWMM TOOLKIT API - VERSION v1.0 (2023-11-27)
  ------------------------------------------------------------

  Gievenbeck_2014-05-23 07 30 00_hN7 01 
  
  ****************
  Analysis Options
  ****************
  Flow Units ............... CMS
  Process Models:
    Rainfall/Runoff ........ YES
    RDII ................... NO
    Snowmelt ............... NO
    Groundwater ............ NO
    Flow Routing ........... YES
    Ponding Allowed ........ NO
    Water Quality .......... NO
  Infiltration Method ...... HORTON
  Flow Routing Method ...... DYNWAVE
  Surcharge Method ......... SLOT
  Starting Date ............ 01/01/2024 00:00:00
  Ending Date .............. 01/08/2024 04:00:00
  Antecedent Dry Days ...... 14.0
  Report Time Step ......... 00:01:00
  Wet Time Step ............ 00:01:00
  Dry Time Step ............ 00:01:00
  Routing Time Step ........ 1.00 sec
  Variable Time Step ....... YES
  Maximum Trials ........... 8
  Number of Threads ........ 1
  Head Tolerance ........... 0.001500 m
  
  
  **************************        Volume         Depth
  Runoff Quantity Continuity     hectare-m            mm
  **************************     ---------       -------
  Total Precipitation ......         0.071         7.010
  Evaporation Loss .........         0.010         0.989
  Infiltration Loss ........         0.039         3.864
  Surface Runoff ...........         0.022         2.158
  Final Storage ............         0.000         0.000
  Continuity Error (%) .....        -0.017
  
  
  **************************        Volume        Volume
  Flow Routing Continuity        hectare-m      10^6 ltr
  **************************     ---------     ---------
  Dry Weather Inflow .......         0.000         0.000
  Wet Weather Inflow .......         0.022         0.218
  Groundwater Inflow .......         0.000         0.000
  RDII Inflow ..............         0.000         0.000
  External Inflow ..........         0.000         0.000
  External Outflow .........         0.022         0.218
  Flooding Loss ............         0.000         0.000
  Evaporation Loss .........         0.000         0.000
  Exfiltration Loss ........         0.000         0.000
  Initial Stored Volume ....         0.000         0.000
  Final Stored Volume ......         0.000         0.000
  Continuity Error (%) .....         0.014
  
  
  ***************************
  Time-Step Critical Elements
  ***************************
  None
  
  
  ********************************
  Highest Flow Instability Indexes
  ********************************
  All links are stable.
  
  
  *********************************
  Most Frequent Nonconverging Nodes
  *********************************
  Convergence obtained at all time steps.
  
  
  *************************
  Routing Time Step Summary
  *************************
  Minimum Time Step           :     0.50 sec
  Average Time Step           :     1.00 sec
  Maximum Time Step           :     1.00 sec
  % of Time in Steady State   :     0.00
  Average Iterations per Step :     2.00
  % of Steps Not Converging   :     0.00
  Time Step Frequencies       :
      1.000 -  0.871 sec      :   100.00 %
      0.871 -  0.758 sec      :     0.00 %
      0.758 -  0.660 sec      :     0.00 %
      0.660 -  0.574 sec      :     0.00 %
      0.574 -  0.500 sec      :     0.00 %
  
  
  ***************************
  Subcatchment Runoff Summary
  ***************************
  
  ------------------------------------------------------------------------------------------------------------------------------
                            Total      Total      Total      Total     Imperv       Perv      Total       Total     Peak  Runoff
                           Precip      Runon       Evap      Infil     Runoff     Runoff     Runoff      Runoff   Runoff   Coeff
  Subcatchment                 mm         mm         mm         mm         mm         mm         mm    10^6 ltr      CMS
  ------------------------------------------------------------------------------------------------------------------------------
  EZG_368                    7.01       0.00       0.98       3.88       2.52       0.00       2.14        0.01     0.00   0.306
  EZG_392                    7.01       0.00       0.98       3.88       2.53       0.00       2.15        0.01     0.00   0.306
  EZG_352                    7.01       0.00       0.99       3.88       2.52       0.00       2.14        0.01     0.00   0.305
  EZG_372                    7.01       0.00       0.97       3.89       2.54       0.00       2.16        0.00     0.00   0.308
  EZG_416                    7.01       0.00       0.98       3.88       2.53       0.00       2.15        0.01     0.00   0.306
  EZG_388                    7.01       0.00       0.98       3.88       2.52       0.00       2.14        0.01     0.00   0.306
  EZG_394                    7.01       0.00       0.98       3.88       2.53       0.00       2.15        0.01     0.00   0.307
  EZG_400                    7.01       0.00       0.98       3.88       2.53       0.00       2.15        0.01     0.00   0.307
  EZG_390                    7.01       0.00       0.98       3.88       2.53       0.00       2.15        0.01     0.00   0.306
  EZG_350                    7.01       0.00       0.98       3.88       2.52       0.00       2.14        0.01     0.00   0.306
  EZG_370                    7.01       0.00       0.98       3.88       2.52       0.00       2.15        0.01     0.00   0.306
  EZG_398                    7.01       0.00       0.97       3.89       2.54       0.00       2.16        0.00     0.00   0.308
  EZG_382                    7.01       0.00       0.97       3.89       2.54       0.00       2.16        0.00     0.00   0.308
  EZG_374                    7.01       0.00       1.19       3.26       3.02       0.00       2.57        0.01     0.00   0.366
  EZG_412                    7.01       0.00       0.96       3.89       2.55       0.00       2.17        0.00     0.00   0.309
  EZG_344                    7.01       0.00       0.98       3.88       2.53       0.00       2.15        0.01     0.00   0.307
  EZG_376                    7.01       0.00       0.97       3.88       2.53       0.00       2.15        0.00     0.00   0.307
  EZG_356                    7.01       0.00       0.99       3.88       2.52       0.00       2.14        0.01     0.00   0.305
  EZG_386                    7.01       0.00       0.99       3.88       2.51       0.00       2.14        0.02     0.01   0.305
  EZG_380                    7.01       0.00       0.98       3.88       2.52       0.00       2.15        0.01     0.00   0.306
  EZG_378                    7.01       0.00       0.98       3.88       2.53       0.00       2.15        0.01     0.00   0.306
  EZG_414                    7.01       0.00       0.97       3.89       2.54       0.00       2.16        0.00     0.00   0.308
  EZG_402                    7.01       0.00       0.98       3.88       2.53       0.00       2.15        0.01     0.00   0.306
  EZG_358                    7.01       0.00       0.99       3.88       2.52       0.00       2.14        0.01     0.00   0.305
  EZG_364                    7.01       0.00       0.99       3.88       2.52       0.00       2.14        0.01     0.00   0.305
  EZG_410                    7.01       0.00       0.97       3.88       2.53       0.00       2.15        0.00     0.00   0.307
  EZG_366                    7.01       0.00       0.98       3.88       2.53       0.00       2.15        0.01     0.00   0.307
  EZG_18259                  7.01       0.00       0.98       3.88       2.53       0.00       2.15        0.01     0.00   0.307
  EZG_18258                  7.01       0.00       0.96       3.89       2.54       0.00       2.16        0.00     0.00   0.308
  EZG_346                    7.01       0.00       0.96       3.95       2.47       0.00       2.10        0.01     0.00   0.300
  EZG_348                    7.01       0.00       0.96       3.95       2.48       0.00       2.11        0.00     0.00   0.301
  
  
  ******************
  Node Depth Summary
  ******************
  
  ---------------------------------------------------------------------------------
                                 Average  Maximum  Maximum  Time of Max    Reported
                                   Depth    Depth      HGL   Occurrence   Max Depth
  Node                 Type       Meters   Meters   Meters  days hr:min      Meters
  ---------------------------------------------------------------------------------
  R0019466             JUNCTION     0.00     0.06    69.51     0  07:30        0.06
  R0019468             JUNCTION     0.00     0.07    69.38     0  07:31        0.07
  R0019831             JUNCTION     0.00     0.04    69.21     0  07:30        0.04
  R0019825             JUNCTION     0.00     0.06    68.90     0  07:30        0.06
  R0019843             JUNCTION     0.00     0.10    67.73     0  07:31        0.10
  R0019368             JUNCTION     0.00     0.14    66.93     0  07:32        0.14
  R0019369             JUNCTION     0.00     0.11    66.70     0  07:32        0.11
  R0019370             JUNCTION     0.00     0.09    65.99     0  07:33        0.09
  R0019345             JUNCTION     0.00     0.07    69.97     0  07:31        0.07
  R0019346             JUNCTION     0.00     0.06    69.86     0  07:31        0.06
  R0043600             JUNCTION     0.00     0.07    69.74     0  07:32        0.07
  R0019203             JUNCTION     0.00     0.08    69.62     0  07:32        0.08
  R0043594             JUNCTION     0.00     0.06    69.79     0  07:30        0.06
  R0021458             JUNCTION     0.00     0.08    69.73     0  07:31        0.08
  R0019202             JUNCTION     0.00     0.07    69.65     0  07:32        0.07
  R0019373             JUNCTION     0.00     0.04    69.71     0  07:30        0.04
  R0019254             JUNCTION     0.00     0.06    70.10     0  07:30        0.06
  R0019716             JUNCTION     0.00     0.09    69.10     0  07:31        0.09
  R0019946             JUNCTION     0.00     0.16    68.78     0  07:31        0.16
  R0013935             JUNCTION     0.00     0.03    68.86     0  07:30        0.03
  R0019939             JUNCTION     0.00     0.05    68.62     0  07:30        0.05
  R0019944             JUNCTION     0.00     0.08    68.36     0  07:32        0.08
  R0043703             JUNCTION     0.00     0.10    68.70     0  07:32        0.10
  R0019945             JUNCTION     0.00     0.10    68.50     0  07:32        0.10
  R0039621             JUNCTION     0.00     0.00    69.57     0  00:00        0.00
  R0019838             JUNCTION     0.00     0.06    69.52     0  07:30        0.06
  R0039606             JUNCTION     0.00     0.07    69.66     0  07:32        0.07
  R0019204             JUNCTION     0.00     0.00    69.91     0  00:00        0.00
  R0019205             JUNCTION     0.00     0.00    69.62     0  00:00        0.00
  R0019849             JUNCTION     0.00     0.06    68.58     0  07:31        0.06
  R0019371             JUNCTION     0.00     0.00    70.41     0  00:00        0.00
  R0019718             JUNCTION     0.00     0.12    69.54     0  07:33        0.12
  R0021442             JUNCTION     0.00     0.07    70.12     0  07:30        0.07
  R0019247             JUNCTION     0.00     0.07    69.95     0  07:31        0.07
  R0019719             JUNCTION     0.00     0.06    69.74     0  07:31        0.06
  R0019767             JUNCTION     0.00     0.10    64.83     0  07:33        0.10
  R0019768             JUNCTION     0.00     0.09    63.86     0  07:33        0.09
  R0021453             JUNCTION     0.00     0.03    69.98     0  07:30        0.03
  R0019839             JUNCTION     0.00     0.06    69.45     0  07:30        0.06
  R0019717             JUNCTION     0.00     0.09    69.43     0  07:31        0.09
  R0019252             JUNCTION     0.00     0.05    70.24     0  07:30        0.05
  R0019721             JUNCTION     0.00     0.05    69.92     0  07:31        0.05
  R0019942             JUNCTION     0.00     0.04    68.69     0  07:31        0.04
  R0019206             JUNCTION     0.00     0.00    69.07     0  00:00        0.00
  R0019840             JUNCTION     0.00     0.05    69.02     0  07:31        0.05
  R0043702             JUNCTION     0.00     0.07    68.77     0  07:31        0.07
  R0019723             JUNCTION     0.00     0.04    70.12     0  07:30        0.04
  R0019724             JUNCTION     0.00     0.02    70.18     0  07:30        0.02
  R0021433             JUNCTION     0.00     0.04    70.43     0  07:30        0.04
  R0021435             JUNCTION     0.00     0.05    70.23     0  07:30        0.05
  R0019769             OUTFALL      0.00     0.08    63.46     0  07:33        0.08
  
  
  *******************
  Node Inflow Summary
  *******************
  
  -------------------------------------------------------------------------------------------------
                                  Maximum  Maximum                  Lateral       Total        Flow
                                  Lateral    Total  Time of Max      Inflow      Inflow     Balance
                                   Inflow   Inflow   Occurrence      Volume      Volume       Error
  Node                 Type           CMS      CMS  days hr:min    10^6 ltr    10^6 ltr     Percent
  -------------------------------------------------------------------------------------------------
  R0019466             JUNCTION     0.003    0.006     0  07:30     0.00886      0.0166      -0.052
  R0019468             JUNCTION     0.002    0.007     0  07:30     0.00515      0.0217       0.058
  R0019831             JUNCTION     0.002    0.002     0  07:30     0.00695     0.00695      -0.125
  R0019825             JUNCTION     0.002    0.005     0  07:30     0.00698      0.0139       0.000
  R0019843             JUNCTION     0.000    0.064     0  07:31           0       0.218      -0.018
  R0019368             JUNCTION     0.000    0.064     0  07:31           0       0.218       0.000
  R0019369             JUNCTION     0.000    0.064     0  07:32           0       0.218       0.004
  R0019370             JUNCTION     0.000    0.064     0  07:32           0       0.218       0.003
  R0019345             JUNCTION     0.000    0.004     0  07:30           0      0.0136       0.163
  R0019346             JUNCTION     0.000    0.007     0  07:31    0.000864      0.0228       0.051
  R0043600             JUNCTION     0.000    0.008     0  07:31           0      0.0264       0.185
  R0019203             JUNCTION     0.001    0.018     0  07:32     0.00191      0.0591      -0.042
  R0043594             JUNCTION     0.004    0.006     0  07:30      0.0126       0.018      -0.212
  R0021458             JUNCTION     0.003    0.009     0  07:30     0.00984      0.0279      -0.065
  R0019202             JUNCTION     0.001    0.009     0  07:31     0.00292      0.0308      -0.022
  R0019373             JUNCTION     0.003    0.003     0  07:30      0.0077      0.0077      -0.058
  R0019254             JUNCTION     0.002    0.005     0  07:30     0.00626      0.0136      -0.093
  R0019716             JUNCTION     0.003    0.035     0  07:30     0.00977       0.122      -0.049
  R0019946             JUNCTION     0.000    0.035     0  07:31           0       0.122       0.056
  R0013935             JUNCTION     0.002    0.002     0  07:30     0.00596     0.00596      -0.114
  R0019939             JUNCTION     0.001    0.003     0  07:30     0.00214     0.00811      -0.042
  R0019944             JUNCTION     0.002    0.045     0  07:31     0.00554       0.156       0.003
  R0043703             JUNCTION     0.002    0.037     0  07:31     0.00679       0.128      -0.001
  R0019945             JUNCTION     0.000    0.044     0  07:31           0        0.15       0.004
  R0039621             JUNCTION     0.000    0.000     0  00:00           0           0       0.000 ltr
  R0019838             JUNCTION     0.005    0.005     0  07:30      0.0137      0.0137      -0.003
  R0039606             JUNCTION     0.000    0.009     0  07:31           0      0.0279       0.201
  R0019204             JUNCTION     0.000    0.000     0  00:00           0           0       0.000 ltr
  R0019205             JUNCTION     0.000    0.000     0  00:00           0           0       0.000 ltr
  R0019849             JUNCTION     0.000    0.007     0  07:30           0       0.022       0.002
  R0019371             JUNCTION     0.000    0.000     0  00:00           0           0       0.000 ltr
  R0019718             JUNCTION     0.003    0.020     0  07:32     0.00835      0.0675       0.041
  R0021442             JUNCTION     0.003    0.007     0  07:30     0.00974      0.0221      -0.039
  R0019247             JUNCTION     0.002    0.008     0  07:30     0.00429      0.0264      -0.137
  R0019719             JUNCTION     0.002    0.008     0  07:31     0.00452      0.0273      -0.002
  R0019767             JUNCTION     0.000    0.064     0  07:33           0       0.218       0.002
  R0019768             JUNCTION     0.000    0.064     0  07:33           0       0.218       0.009
  R0021453             JUNCTION     0.002    0.002     0  07:30     0.00544     0.00544       0.681
  R0019839             JUNCTION     0.005    0.009     0  07:30      0.0135      0.0272      -0.036
  R0019717             JUNCTION     0.006    0.032     0  07:31      0.0171       0.112       0.001
  R0019252             JUNCTION     0.003    0.003     0  07:30     0.00736     0.00736      -0.126
  R0019721             JUNCTION     0.001    0.003     0  07:30     0.00188     0.00832       0.009
  R0019942             JUNCTION     0.000    0.005     0  07:30           0      0.0139       0.056
  R0019206             JUNCTION     0.000    0.000     0  00:00           0           0       0.000 ltr
  R0019840             JUNCTION     0.000    0.015     0  07:30           0       0.049       0.021
  R0043702             JUNCTION     0.005    0.019     0  07:30      0.0136      0.0625      -0.002
  R0019723             JUNCTION     0.002    0.002     0  07:30     0.00511     0.00643      -0.164
  R0019724             JUNCTION     0.000    0.000     0  07:30     0.00132     0.00132      -0.121
  R0021433             JUNCTION     0.003    0.003     0  07:30     0.00765     0.00765      -0.123
  R0021435             JUNCTION     0.002    0.004     0  07:30     0.00469      0.0124       0.047
  R0019769             OUTFALL      0.000    0.064     0  07:33           0       0.218       0.000
  
  
  **********************
  Node Surcharge Summary
  **********************
  
  No nodes were surcharged.
  
  
  *********************
  Node Flooding Summary
  *********************
  
  No nodes were flooded.
  
  
  ***********************
  Outfall Loading Summary
  ***********************
  
  -----------------------------------------------------------
                         Flow       Avg       Max       Total
                         Freq      Flow      Flow      Volume
  Outfall Node           Pcnt       CMS       CMS    10^6 ltr
  -----------------------------------------------------------
  R0019769               2.72     0.013     0.064       0.218
  -----------------------------------------------------------
  System                 2.72     0.013     0.064       0.218
  
  
  ********************
  Link Flow Summary
  ********************
  
  -----------------------------------------------------------------------------
                                 Maximum  Time of Max   Maximum    Max/    Max/
                                  |Flow|   Occurrence   |Veloc|    Full    Full
  Link                 Type          CMS  days hr:min     m/sec    Flow   Depth
  -----------------------------------------------------------------------------
  H0014431             CONDUIT     0.005     0  07:30      0.47    0.10    0.22
  H0014433             CONDUIT     0.002     0  07:30      0.33    0.03    0.16
  H0014352             CONDUIT     0.064     0  07:31      1.24    0.03    0.14
  H0014373             CONDUIT     0.064     0  07:32      1.63    0.03    0.11
  H0017981             CONDUIT     0.004     0  07:31      0.44    0.12    0.20
  H0017755             CONDUIT     0.008     0  07:32      0.60    0.07    0.16
  H0017791             CONDUIT     0.006     0  07:30      0.26    0.01    0.08
  H0017357             CONDUIT     0.000     0  00:00      0.00    0.00    0.07
  H0018216             CONDUIT     0.004     0  07:30      0.41    0.08    0.21
  H0016792             CONDUIT     0.035     0  07:31      0.67    0.02    0.14
  H0019507             CONDUIT     0.002     0  07:30      0.33    0.03    0.14
  H0019998             CONDUIT     0.045     0  07:32      1.32    0.02    0.10
  H0019576             CONDUIT     0.037     0  07:32      0.95    0.02    0.11
  H0020087             CONDUIT     0.000     0  00:00      0.00    0.00    0.06
  H0020211             CONDUIT     0.035     0  07:32      0.63    0.09    0.14
  H0018982             CONDUIT     0.009     0  07:31      0.36    0.01    0.08
  H0018753             CONDUIT     0.003     0  07:30      0.32    0.04    0.17
  H0018845             CONDUIT     0.000     0  00:00      0.00    0.00    0.00
  H0018863             CONDUIT     0.003     0  07:30      0.31    0.06    0.18
  H0019156             CONDUIT     0.000     0  00:00      0.00    0.00    0.00
  H0018929             CONDUIT     0.018     0  07:32      0.46    0.02    0.11
  H0018440             CONDUIT     0.007     0  07:30      0.53    0.13    0.24
  H0018456             CONDUIT     0.007     0  07:31      0.60    0.04    0.15
  H0018968             CONDUIT     0.064     0  07:33      1.86    0.02    0.10
  H0022036             CONDUIT     0.002     0  07:30      0.43    0.00    0.03
  H0021806             CONDUIT     0.008     0  07:31      0.54    0.07    0.18
  H0022111             CONDUIT     0.004     0  07:30      0.33    0.03    0.12
  H0021440             CONDUIT     0.032     0  07:31      0.99    0.02    0.10
  H0021704             CONDUIT     0.020     0  07:33      0.51    0.04    0.11
  H0020521             CONDUIT     0.002     0  07:30      0.30    0.05    0.17
  H0020755             CONDUIT     0.003     0  07:31      0.28    0.03    0.13
  H0020530             CONDUIT     0.064     0  07:32      1.18    0.05    0.14
  H0020618             CONDUIT     0.044     0  07:32      1.26    0.03    0.10
  H0021163             CONDUIT     0.005     0  07:30      0.58    0.08    0.17
  H0020497             CONDUIT     0.000     0  00:00      0.00    0.00    0.17
  H0024325             CONDUIT     0.009     0  07:30      0.78    0.03    0.11
  H0023585             CONDUIT     0.019     0  07:31      1.12    0.04    0.14
  H0024098             CONDUIT     0.007     0  07:31      0.61    0.08    0.27
  H0024235             CONDUIT     0.008     0  07:32      0.60    0.03    0.12
  H0024282             CONDUIT     0.000     0  00:00      0.00    0.00    0.00
  H0024308             CONDUIT     0.064     0  07:33      2.09    0.02    0.09
  H0024498             CONDUIT     0.007     0  07:31      0.62    0.11    0.21
  H0026990             CONDUIT     0.002     0  07:30      0.32    0.02    0.10
  H0041650             CONDUIT     0.009     0  07:32      0.39    0.01    0.08
  H0041011             CONDUIT     0.005     0  07:31      0.57    0.04    0.17
  H0045103             CONDUIT     0.008     0  07:32      0.41    0.01    0.07
  H0045104             CONDUIT     0.064     0  07:33      1.74    0.02    0.11
  H0045105             CONDUIT     0.000     0  07:30      0.15    0.01    0.09
  H0045106             CONDUIT     0.015     0  07:31      1.13    0.02    0.12
  H0045107             CONDUIT     0.003     0  07:30      0.35    0.04    0.16
  H0045108             CONDUIT     0.004     0  07:30      0.37    0.07    0.21
  
  
  ***************************
  Flow Classification Summary
  ***************************
  
  -------------------------------------------------------------------------------------
                      Adjusted    ---------- Fraction of Time in Flow Class ---------- 
                       /Actual         Up    Down  Sub   Sup   Up    Down  Norm  Inlet 
  Conduit               Length    Dry  Dry   Dry   Crit  Crit  Crit  Crit  Ltd   Ctrl  
  -------------------------------------------------------------------------------------
  H0014431                1.00   0.03  0.00  0.00  0.97  0.00  0.00  0.00  0.97  0.00
  H0014433                1.00   0.03  0.00  0.00  0.97  0.00  0.00  0.00  0.97  0.00
  H0014352                1.00   0.03  0.00  0.00  0.95  0.02  0.00  0.00  0.97  0.00
  H0014373                1.00   0.03  0.00  0.00  0.94  0.02  0.00  0.00  0.94  0.00
  H0017981                1.00   0.03  0.00  0.00  0.00  0.00  0.00  0.97  0.00  0.00
  H0017755                1.00   0.03  0.00  0.00  0.00  0.00  0.00  0.97  0.00  0.00
  H0017791                1.00   0.03  0.00  0.00  0.97  0.00  0.00  0.00  0.97  0.00
  H0017357                1.00   0.03  0.97  0.00  0.00  0.00  0.00  0.00  0.00  0.00
  H0018216                1.00   0.03  0.94  0.00  0.03  0.00  0.00  0.00  0.97  0.00
  H0016792                1.00   0.03  0.94  0.00  0.03  0.00  0.00  0.00  0.97  0.00
  H0019507                1.00   0.03  0.00  0.00  0.97  0.00  0.00  0.00  0.97  0.00
  H0019998                1.00   0.03  0.00  0.00  0.94  0.02  0.00  0.00  0.03  0.00
  H0019576                1.00   0.03  0.00  0.00  0.96  0.01  0.00  0.00  0.03  0.00
  H0020087                1.00   0.03  0.97  0.00  0.00  0.00  0.00  0.00  0.00  0.00
  H0020211                1.00   0.03  0.00  0.00  0.97  0.00  0.00  0.00  0.94  0.00
  H0018982                1.00   0.03  0.00  0.00  0.97  0.00  0.00  0.00  0.95  0.00
  H0018753                1.00   0.03  0.00  0.00  0.97  0.00  0.00  0.00  0.97  0.00
  H0018845                1.00   1.00  0.00  0.00  0.00  0.00  0.00  0.00  0.00  0.00
  H0018863                1.00   0.03  0.00  0.00  0.97  0.00  0.00  0.00  0.97  0.00
  H0019156                1.00   1.00  0.00  0.00  0.00  0.00  0.00  0.00  0.00  0.00
  H0018929                1.00   0.03  0.94  0.00  0.03  0.00  0.00  0.00  0.97  0.00
  H0018440                1.00   0.03  0.00  0.00  0.97  0.00  0.00  0.00  0.97  0.00
  H0018456                1.00   0.03  0.00  0.00  0.97  0.00  0.00  0.00  0.97  0.00
  H0018968                1.00   0.03  0.93  0.00  0.01  0.03  0.00  0.00  0.94  0.00
  H0022036                1.00   0.03  0.00  0.00  0.00  0.00  0.00  0.96  0.00  0.00
  H0021806                1.00   0.03  0.94  0.00  0.03  0.00  0.00  0.00  0.96  0.00
  H0022111                1.00   0.03  0.00  0.00  0.97  0.00  0.00  0.00  0.00  0.00
  H0021440                1.00   0.03  0.00  0.00  0.95  0.02  0.00  0.00  0.01  0.00
  H0021704                1.00   0.03  0.00  0.00  0.00  0.00  0.00  0.97  0.00  0.00
  H0020521                1.00   0.03  0.00  0.00  0.97  0.00  0.00  0.00  0.97  0.00
  H0020755                1.00   0.03  0.94  0.00  0.03  0.00  0.00  0.00  0.97  0.00
  H0020530                1.00   0.03  0.00  0.00  0.95  0.01  0.00  0.00  0.00  0.00
  H0020618                1.00   0.03  0.00  0.00  0.95  0.02  0.00  0.00  0.94  0.00
  H0021163                1.00   0.03  0.00  0.00  0.97  0.00  0.00  0.00  0.95  0.00
  H0020497                1.20   0.03  0.97  0.00  0.00  0.00  0.00  0.00  0.00  0.00
  H0024325                1.00   0.03  0.00  0.00  0.95  0.02  0.00  0.00  0.95  0.00
  H0023585                1.00   0.03  0.00  0.00  0.00  0.00  0.00  0.97  0.00  0.00
  H0024098                1.00   0.03  0.94  0.00  0.03  0.00  0.00  0.00  0.97  0.00
  H0024235                1.00   0.03  0.00  0.00  0.00  0.00  0.00  0.97  0.00  0.00
  H0024282                1.00   1.00  0.00  0.00  0.00  0.00  0.00  0.00  0.00  0.00
  H0024308                1.00   0.03  0.00  0.00  0.94  0.03  0.00  0.00  0.01  0.00
  H0024498                1.00   0.03  0.00  0.00  0.00  0.00  0.00  0.97  0.00  0.00
  H0026990                1.00   0.03  0.00  0.00  0.97  0.00  0.00  0.00  0.97  0.00
  H0041650                1.00   0.97  0.00  0.00  0.02  0.00  0.00  0.00  0.97  0.00
  H0041011                1.00   0.03  0.00  0.00  0.97  0.00  0.00  0.00  0.97  0.00
  H0045103                1.00   0.03  0.00  0.00  0.97  0.00  0.00  0.00  0.95  0.00
  H0045104                1.00   0.03  0.00  0.00  0.94  0.03  0.00  0.00  0.03  0.00
  H0045105                1.00   0.03  0.00  0.00  0.97  0.00  0.00  0.00  0.97  0.00
  H0045106                1.00   0.03  0.00  0.00  0.95  0.02  0.00  0.00  0.97  0.00
  H0045107                1.00   0.03  0.00  0.00  0.97  0.00  0.00  0.00  0.97  0.00
  H0045108                1.00   0.03  0.00  0.00  0.97  0.00  0.00  0.00  0.97  0.00
  
  
  *************************
  Conduit Surcharge Summary
  *************************
  
  No conduits were surcharged.
  

  Analysis begun on:  Thu Mar 21 16:36:41 2024
  Analysis ended on:  Thu Mar 21 16:36:51 2024
  Total elapsed time: 00:00:10