
  EPA STORM WATER MANAGEMENT MODEL - VERSION 5.2 (Build 5.2.4)
  PYSWMM TOOLKIT API - VERSION v1.0 (2023-11-27)
  ------------------------------------------------------------

  Gievenbeck_2014-09-20 15 25 00_hN13 86 
  
  ****************
  Analysis Options
  ****************
  Flow Units ............... CMS
  Process Models:
    Rainfall/Runoff ........ YES
    RDII ................... NO
    Snowmelt ............... NO
    Groundwater ............ NO
    Flow Routing ........... YES
    Ponding Allowed ........ NO
    Water Quality .......... NO
  Infiltration Method ...... HORTON
  Flow Routing Method ...... DYNWAVE
  Surcharge Method ......... SLOT
  Starting Date ............ 01/01/2024 00:00:00
  Ending Date .............. 01/08/2024 04:00:00
  Antecedent Dry Days ...... 14.0
  Report Time Step ......... 00:01:00
  Wet Time Step ............ 00:01:00
  Dry Time Step ............ 00:01:00
  Routing Time Step ........ 1.00 sec
  Variable Time Step ....... YES
  Maximum Trials ........... 8
  Number of Threads ........ 1
  Head Tolerance ........... 0.001500 m
  
  
  **************************        Volume         Depth
  Runoff Quantity Continuity     hectare-m            mm
  **************************     ---------       -------
  Total Precipitation ......         0.140        13.860
  Evaporation Loss .........         0.011         1.072
  Infiltration Loss ........         0.079         7.774
  Surface Runoff ...........         0.051         5.032
  Final Storage ............         0.000         0.000
  Continuity Error (%) .....        -0.129
  
  
  **************************        Volume        Volume
  Flow Routing Continuity        hectare-m      10^6 ltr
  **************************     ---------     ---------
  Dry Weather Inflow .......         0.000         0.000
  Wet Weather Inflow .......         0.051         0.509
  Groundwater Inflow .......         0.000         0.000
  RDII Inflow ..............         0.000         0.000
  External Inflow ..........         0.000         0.000
  External Outflow .........         0.051         0.510
  Flooding Loss ............         0.000         0.000
  Evaporation Loss .........         0.000         0.000
  Exfiltration Loss ........         0.000         0.000
  Initial Stored Volume ....         0.000         0.000
  Final Stored Volume ......         0.000         0.000
  Continuity Error (%) .....        -0.072
  
  
  ***************************
  Time-Step Critical Elements
  ***************************
  None
  
  
  ********************************
  Highest Flow Instability Indexes
  ********************************
  All links are stable.
  
  
  *********************************
  Most Frequent Nonconverging Nodes
  *********************************
  Convergence obtained at all time steps.
  
  
  *************************
  Routing Time Step Summary
  *************************
  Minimum Time Step           :     0.50 sec
  Average Time Step           :     1.00 sec
  Maximum Time Step           :     1.00 sec
  % of Time in Steady State   :     0.00
  Average Iterations per Step :     2.00
  % of Steps Not Converging   :     0.00
  Time Step Frequencies       :
      1.000 -  0.871 sec      :   100.00 %
      0.871 -  0.758 sec      :     0.00 %
      0.758 -  0.660 sec      :     0.00 %
      0.660 -  0.574 sec      :     0.00 %
      0.574 -  0.500 sec      :     0.00 %
  
  
  ***************************
  Subcatchment Runoff Summary
  ***************************
  
  ------------------------------------------------------------------------------------------------------------------------------
                            Total      Total      Total      Total     Imperv       Perv      Total       Total     Peak  Runoff
                           Precip      Runon       Evap      Infil     Runoff     Runoff     Runoff      Runoff   Runoff   Coeff
  Subcatchment                 mm         mm         mm         mm         mm         mm         mm    10^6 ltr      CMS
  ------------------------------------------------------------------------------------------------------------------------------
  EZG_368                   13.86       0.00       1.07       7.81       5.88       0.00       5.00        0.02     0.02   0.361
  EZG_392                   13.86       0.00       1.06       7.81       5.89       0.00       5.00        0.02     0.02   0.361
  EZG_352                   13.86       0.00       1.07       7.81       5.87       0.00       4.99        0.03     0.03   0.360
  EZG_372                   13.86       0.00       1.05       7.82       5.90       0.00       5.02        0.01     0.01   0.362
  EZG_416                   13.86       0.00       1.06       7.81       5.89       0.00       5.01        0.01     0.01   0.361
  EZG_388                   13.86       0.00       1.07       7.81       5.88       0.00       5.00        0.02     0.02   0.361
  EZG_394                   13.86       0.00       1.06       7.81       5.89       0.00       5.01        0.01     0.01   0.361
  EZG_400                   13.86       0.00       1.06       7.81       5.89       0.00       5.01        0.01     0.01   0.361
  EZG_390                   13.86       0.00       1.06       7.81       5.89       0.00       5.00        0.02     0.02   0.361
  EZG_350                   13.86       0.00       1.07       7.81       5.88       0.00       5.00        0.02     0.02   0.361
  EZG_370                   13.86       0.00       1.06       7.81       5.89       0.00       5.00        0.02     0.02   0.361
  EZG_398                   13.86       0.00       1.05       7.82       5.91       0.00       5.02        0.00     0.01   0.362
  EZG_382                   13.86       0.00       1.05       7.82       5.91       0.00       5.03        0.00     0.00   0.363
  EZG_374                   13.86       0.00       1.28       6.60       7.05       0.00       5.99        0.02     0.02   0.432
  EZG_412                   13.86       0.00       1.04       7.82       5.93       0.00       5.04        0.00     0.00   0.363
  EZG_344                   13.86       0.00       1.06       7.81       5.89       0.00       5.01        0.01     0.01   0.361
  EZG_376                   13.86       0.00       1.05       7.81       5.90       0.00       5.01        0.01     0.01   0.362
  EZG_356                   13.86       0.00       1.07       7.81       5.87       0.00       4.99        0.03     0.03   0.360
  EZG_386                   13.86       0.00       1.08       7.81       5.87       0.00       4.99        0.04     0.03   0.360
  EZG_380                   13.86       0.00       1.06       7.81       5.88       0.00       5.00        0.02     0.02   0.361
  EZG_378                   13.86       0.00       1.06       7.81       5.89       0.00       5.00        0.02     0.02   0.361
  EZG_414                   13.86       0.00       1.05       7.82       5.91       0.00       5.03        0.00     0.00   0.363
  EZG_402                   13.86       0.00       1.06       7.81       5.89       0.00       5.00        0.02     0.02   0.361
  EZG_358                   13.86       0.00       1.07       7.81       5.87       0.00       4.99        0.03     0.03   0.360
  EZG_364                   13.86       0.00       1.07       7.81       5.87       0.00       4.99        0.03     0.03   0.360
  EZG_410                   13.86       0.00       1.06       7.81       5.90       0.00       5.01        0.01     0.01   0.362
  EZG_366                   13.86       0.00       1.06       7.81       5.89       0.00       5.01        0.01     0.01   0.361
  EZG_18259                 13.86       0.00       1.06       7.81       5.89       0.00       5.01        0.01     0.01   0.361
  EZG_18258                 13.86       0.00       1.04       7.82       5.92       0.00       5.03        0.00     0.00   0.363
  EZG_346                   13.86       0.00       1.04       7.93       5.77       0.00       4.90        0.02     0.02   0.354
  EZG_348                   13.86       0.00       1.03       7.94       5.78       0.00       4.91        0.01     0.01   0.354
  
  
  ******************
  Node Depth Summary
  ******************
  
  ---------------------------------------------------------------------------------
                                 Average  Maximum  Maximum  Time of Max    Reported
                                   Depth    Depth      HGL   Occurrence   Max Depth
  Node                 Type       Meters   Meters   Meters  days hr:min      Meters
  ---------------------------------------------------------------------------------
  R0019466             JUNCTION     0.00     0.17    69.62     0  06:15        0.17
  R0019468             JUNCTION     0.00     0.18    69.49     0  06:16        0.18
  R0019831             JUNCTION     0.00     0.09    69.26     0  06:15        0.09
  R0019825             JUNCTION     0.00     0.15    68.99     0  06:15        0.15
  R0019843             JUNCTION     0.00     0.26    67.89     0  06:19        0.26
  R0019368             JUNCTION     0.00     0.38    67.17     0  06:19        0.38
  R0019369             JUNCTION     0.00     0.28    66.87     0  06:19        0.28
  R0019370             JUNCTION     0.00     0.24    66.14     0  06:20        0.24
  R0019345             JUNCTION     0.00     0.17    70.07     0  06:16        0.17
  R0019346             JUNCTION     0.00     0.15    69.95     0  06:16        0.15
  R0043600             JUNCTION     0.00     0.18    69.85     0  06:17        0.18
  R0019203             JUNCTION     0.00     0.20    69.74     0  06:18        0.20
  R0043594             JUNCTION     0.00     0.14    69.87     0  06:16        0.14
  R0021458             JUNCTION     0.00     0.18    69.83     0  06:17        0.18
  R0019202             JUNCTION     0.00     0.17    69.75     0  06:18        0.17
  R0019373             JUNCTION     0.00     0.10    69.77     0  06:15        0.10
  R0019254             JUNCTION     0.00     0.15    70.19     0  06:16        0.15
  R0019716             JUNCTION     0.00     0.23    69.24     0  06:18        0.23
  R0019946             JUNCTION     0.00     0.34    68.96     0  06:18        0.34
  R0013935             JUNCTION     0.00     0.09    68.92     0  06:15        0.09
  R0019939             JUNCTION     0.00     0.14    68.71     0  06:16        0.14
  R0019944             JUNCTION     0.00     0.21    68.49     0  06:19        0.21
  R0043703             JUNCTION     0.00     0.25    68.85     0  06:19        0.25
  R0019945             JUNCTION     0.00     0.26    68.66     0  06:19        0.26
  R0039621             JUNCTION     0.00     0.04    69.61     0  06:16        0.04
  R0019838             JUNCTION     0.00     0.15    69.61     0  06:17        0.15
  R0039606             JUNCTION     0.00     0.17    69.76     0  06:18        0.17
  R0019204             JUNCTION     0.00     0.00    69.91     0  00:00        0.00
  R0019205             JUNCTION     0.00     0.00    69.62     0  00:00        0.00
  R0019849             JUNCTION     0.00     0.16    68.68     0  06:16        0.16
  R0019371             JUNCTION     0.00     0.00    70.41     0  00:00        0.00
  R0019718             JUNCTION     0.00     0.28    69.70     0  06:18        0.28
  R0021442             JUNCTION     0.00     0.21    70.26     0  06:16        0.21
  R0019247             JUNCTION     0.00     0.20    70.08     0  06:16        0.20
  R0019719             JUNCTION     0.00     0.16    69.84     0  06:17        0.16
  R0019767             JUNCTION     0.00     0.25    64.98     0  06:20        0.25
  R0019768             JUNCTION     0.00     0.22    63.99     0  06:20        0.22
  R0021453             JUNCTION     0.00     0.06    70.01     0  06:15        0.06
  R0019839             JUNCTION     0.00     0.14    69.53     0  06:16        0.14
  R0019717             JUNCTION     0.00     0.23    69.57     0  06:18        0.23
  R0019252             JUNCTION     0.00     0.12    70.31     0  06:15        0.12
  R0019721             JUNCTION     0.00     0.12    69.99     0  06:16        0.12
  R0019942             JUNCTION     0.00     0.11    68.76     0  06:16        0.11
  R0019206             JUNCTION     0.00     0.00    69.07     0  00:00        0.00
  R0019840             JUNCTION     0.00     0.12    69.09     0  06:16        0.12
  R0043702             JUNCTION     0.00     0.18    68.88     0  06:16        0.18
  R0019723             JUNCTION     0.00     0.09    70.17     0  06:15        0.09
  R0019724             JUNCTION     0.00     0.05    70.21     0  06:15        0.05
  R0021433             JUNCTION     0.00     0.11    70.50     0  06:15        0.11
  R0021435             JUNCTION     0.00     0.15    70.33     0  06:15        0.15
  R0019769             OUTFALL      0.00     0.22    63.60     0  06:20        0.22
  
  
  *******************
  Node Inflow Summary
  *******************
  
  -------------------------------------------------------------------------------------------------
                                  Maximum  Maximum                  Lateral       Total        Flow
                                  Lateral    Total  Time of Max      Inflow      Inflow     Balance
                                   Inflow   Inflow   Occurrence      Volume      Volume       Error
  Node                 Type           CMS      CMS  days hr:min    10^6 ltr    10^6 ltr     Percent
  -------------------------------------------------------------------------------------------------
  R0019466             JUNCTION     0.019    0.035     0  06:15      0.0207      0.0386      -0.060
  R0019468             JUNCTION     0.012    0.046     0  06:15       0.012      0.0506       0.060
  R0019831             JUNCTION     0.015    0.015     0  06:15      0.0162      0.0162      -0.204
  R0019825             JUNCTION     0.015    0.030     0  06:15      0.0163      0.0325      -0.025
  R0019843             JUNCTION     0.000    0.431     0  06:19           0        0.51      -0.032
  R0019368             JUNCTION     0.000    0.431     0  06:19           0        0.51       0.005
  R0019369             JUNCTION     0.000    0.430     0  06:19           0        0.51       0.000
  R0019370             JUNCTION     0.000    0.431     0  06:19           0        0.51       0.012
  R0019345             JUNCTION     0.000    0.029     0  06:16           0      0.0318       0.227
  R0019346             JUNCTION     0.002    0.048     0  06:16     0.00201      0.0531       0.084
  R0043600             JUNCTION     0.000    0.054     0  06:17           0      0.0616       0.252
  R0019203             JUNCTION     0.005    0.119     0  06:17     0.00444       0.138      -0.039
  R0043594             JUNCTION     0.026    0.038     0  06:15      0.0295      0.0421      -0.487
  R0021458             JUNCTION     0.021    0.057     0  06:15      0.0229      0.0653      -0.042
  R0019202             JUNCTION     0.007    0.061     0  06:17     0.00679       0.072      -0.040
  R0019373             JUNCTION     0.017    0.017     0  06:15      0.0179      0.0179      -0.101
  R0019254             JUNCTION     0.014    0.029     0  06:15      0.0146      0.0318      -0.115
  R0019716             JUNCTION     0.021    0.242     0  06:18      0.0228       0.284      -0.076
  R0019946             JUNCTION     0.000    0.242     0  06:18           0       0.284       0.087
  R0013935             JUNCTION     0.013    0.013     0  06:15      0.0139      0.0139      -0.233
  R0019939             JUNCTION     0.005    0.018     0  06:15     0.00497      0.0189      -0.027
  R0019944             JUNCTION     0.012    0.309     0  06:19      0.0129       0.364      -0.003
  R0043703             JUNCTION     0.015    0.255     0  06:19      0.0158         0.3      -0.002
  R0019945             JUNCTION     0.000    0.299     0  06:19           0       0.351       0.005
  R0039621             JUNCTION     0.000    0.001     0  06:13           0    0.000188       3.772
  R0019838             JUNCTION     0.028    0.028     0  06:15       0.032      0.0322      -0.031
  R0039606             JUNCTION     0.000    0.056     0  06:17           0      0.0654       0.260
  R0019204             JUNCTION     0.000    0.000     0  00:00           0           0       0.000 ltr
  R0019205             JUNCTION     0.000    0.000     0  00:00           0           0       0.000 ltr
  R0019849             JUNCTION     0.000    0.047     0  06:16           0      0.0514       0.027
  R0019371             JUNCTION     0.000    0.000     0  00:00           0           0       0.000 ltr
  R0019718             JUNCTION     0.018    0.135     0  06:18      0.0195       0.157      -0.275
  R0021442             JUNCTION     0.020    0.046     0  06:15      0.0227      0.0515      -0.054
  R0019247             JUNCTION     0.010    0.055     0  06:16     0.00999      0.0615      -0.196
  R0019719             JUNCTION     0.010    0.057     0  06:16      0.0105      0.0636      -0.032
  R0019767             JUNCTION     0.000    0.430     0  06:20           0        0.51      -0.004
  R0019768             JUNCTION     0.000    0.431     0  06:20           0        0.51       0.027
  R0021453             JUNCTION     0.012    0.012     0  06:15      0.0127      0.0127       0.429
  R0019839             JUNCTION     0.028    0.054     0  06:15      0.0316      0.0636      -0.072
  R0019717             JUNCTION     0.034    0.223     0  06:18      0.0398       0.261       0.066
  R0019252             JUNCTION     0.016    0.016     0  06:15      0.0171      0.0171      -0.224
  R0019721             JUNCTION     0.004    0.019     0  06:15     0.00437      0.0194       0.053
  R0019942             JUNCTION     0.000    0.030     0  06:15           0      0.0325       0.124
  R0019206             JUNCTION     0.000    0.000     0  00:00           0           0       0.000 ltr
  R0019840             JUNCTION     0.000    0.099     0  06:16           0       0.114       0.043
  R0043702             JUNCTION     0.028    0.125     0  06:16      0.0316       0.146      -0.013
  R0019723             JUNCTION     0.012    0.015     0  06:15      0.0119       0.015      -0.283
  R0019724             JUNCTION     0.003    0.003     0  06:15     0.00308     0.00308      -0.321
  R0021433             JUNCTION     0.017    0.017     0  06:15      0.0178      0.0178      -0.224
  R0021435             JUNCTION     0.011    0.027     0  06:15      0.0109      0.0288       0.099
  R0019769             OUTFALL      0.000    0.431     0  06:20           0        0.51       0.000
  
  
  **********************
  Node Surcharge Summary
  **********************
  
  No nodes were surcharged.
  
  
  *********************
  Node Flooding Summary
  *********************
  
  No nodes were flooded.
  
  
  ***********************
  Outfall Loading Summary
  ***********************
  
  -----------------------------------------------------------
                         Flow       Avg       Max       Total
                         Freq      Flow      Flow      Volume
  Outfall Node           Pcnt       CMS       CMS    10^6 ltr
  -----------------------------------------------------------
  R0019769               3.36     0.025     0.431       0.510
  -----------------------------------------------------------
  System                 3.36     0.025     0.431       0.510
  
  
  ********************
  Link Flow Summary
  ********************
  
  -----------------------------------------------------------------------------
                                 Maximum  Time of Max   Maximum    Max/    Max/
                                  |Flow|   Occurrence   |Veloc|    Full    Full
  Link                 Type          CMS  days hr:min     m/sec    Flow   Depth
  -----------------------------------------------------------------------------
  H0014431             CONDUIT     0.035     0  06:15      0.79    0.64    0.60
  H0014433             CONDUIT     0.015     0  06:15      0.58    0.19    0.40
  H0014352             CONDUIT     0.431     0  06:19      2.16    0.18    0.35
  H0014373             CONDUIT     0.431     0  06:19      2.88    0.20    0.28
  H0017981             CONDUIT     0.028     0  06:16      0.82    0.81    0.49
  H0017755             CONDUIT     0.054     0  06:17      1.05    0.44    0.43
  H0017791             CONDUIT     0.037     0  06:16      0.48    0.05    0.18
  H0017357             CONDUIT     0.000     0  00:00      0.00    0.00    0.16
  H0018216             CONDUIT     0.029     0  06:16      0.75    0.52    0.53
  H0016792             CONDUIT     0.242     0  06:18      1.39    0.14    0.32
  H0019507             CONDUIT     0.013     0  06:15      0.56    0.18    0.37
  H0019998             CONDUIT     0.309     0  06:19      2.34    0.12    0.26
  H0019576             CONDUIT     0.256     0  06:19      1.70    0.17    0.29
  H0020087             CONDUIT     0.002     0  06:21      0.08    0.01    0.19
  H0020211             CONDUIT     0.242     0  06:19      1.31    0.60    0.33
  H0018982             CONDUIT     0.056     0  06:17      0.64    0.09    0.20
  H0018753             CONDUIT     0.016     0  06:15      0.53    0.23    0.45
  H0018845             CONDUIT     0.000     0  00:00      0.00    0.00    0.00
  H0018863             CONDUIT     0.017     0  06:15      0.50    0.41    0.50
  H0019156             CONDUIT     0.000     0  00:00      0.00    0.00    0.00
  H0018929             CONDUIT     0.119     0  06:18      0.90    0.10    0.26
  H0018440             CONDUIT     0.046     0  06:16      0.90    0.82    0.68
  H0018456             CONDUIT     0.048     0  06:16      1.05    0.29    0.39
  H0018968             CONDUIT     0.431     0  06:20      3.28    0.17    0.26
  H0022036             CONDUIT     0.012     0  06:15      0.49    0.01    0.10
  H0021806             CONDUIT     0.054     0  06:17      0.94    0.48    0.47
  H0022111             CONDUIT     0.027     0  06:17      0.58    0.19    0.29
  H0021440             CONDUIT     0.223     0  06:18      1.75    0.14    0.25
  H0021704             CONDUIT     0.135     0  06:18      0.98    0.26    0.27
  H0020521             CONDUIT     0.016     0  06:15      0.51    0.32    0.45
  H0020755             CONDUIT     0.018     0  06:16      0.48    0.20    0.34
  H0020530             CONDUIT     0.430     0  06:19      2.06    0.37    0.36
  H0020618             CONDUIT     0.299     0  06:19      2.22    0.19    0.26
  H0021163             CONDUIT     0.030     0  06:15      1.00    0.50    0.44
  H0020497             CONDUIT     0.000     0  00:00      0.00    0.00    0.43
  H0024325             CONDUIT     0.054     0  06:16      1.33    0.16    0.26
  H0023585             CONDUIT     0.125     0  06:17      1.92    0.29    0.37
  H0024098             CONDUIT     0.047     0  06:16      1.11    0.55    0.70
  H0024235             CONDUIT     0.057     0  06:17      1.04    0.23    0.32
  H0024282             CONDUIT     0.000     0  00:00      0.00    0.00    0.00
  H0024308             CONDUIT     0.431     0  06:20      3.67    0.13    0.24
  H0024498             CONDUIT     0.045     0  06:16      1.05    0.70    0.58
  H0026990             CONDUIT     0.014     0  06:15      0.58    0.11    0.26
  H0041650             CONDUIT     0.061     0  06:18      0.65    0.07    0.21
  H0041011             CONDUIT     0.030     0  06:16      0.95    0.30    0.46
  H0045103             CONDUIT     0.056     0  06:17      0.66    0.07    0.19
  H0045104             CONDUIT     0.430     0  06:20      3.07    0.15    0.27
  H0045105             CONDUIT     0.003     0  06:15      0.29    0.05    0.23
  H0045106             CONDUIT     0.099     0  06:16      1.93    0.13    0.31
  H0045107             CONDUIT     0.016     0  06:15      0.59    0.27    0.42
  H0045108             CONDUIT     0.026     0  06:15      0.61    0.47    0.59
  
  
  ***************************
  Flow Classification Summary
  ***************************
  
  -------------------------------------------------------------------------------------
                      Adjusted    ---------- Fraction of Time in Flow Class ---------- 
                       /Actual         Up    Down  Sub   Sup   Up    Down  Norm  Inlet 
  Conduit               Length    Dry  Dry   Dry   Crit  Crit  Crit  Crit  Ltd   Ctrl  
  -------------------------------------------------------------------------------------
  H0014431                1.00   0.01  0.00  0.00  0.99  0.00  0.00  0.00  0.99  0.00
  H0014433                1.00   0.01  0.00  0.00  0.99  0.00  0.00  0.00  0.99  0.00
  H0014352                1.00   0.01  0.00  0.00  0.97  0.01  0.00  0.00  0.99  0.00
  H0014373                1.00   0.01  0.00  0.00  0.96  0.03  0.00  0.00  0.95  0.00
  H0017981                1.00   0.01  0.00  0.00  0.00  0.00  0.00  0.99  0.00  0.00
  H0017755                1.00   0.01  0.00  0.00  0.00  0.00  0.00  0.99  0.00  0.00
  H0017791                1.00   0.01  0.00  0.00  0.99  0.00  0.00  0.00  0.99  0.00
  H0017357                1.00   0.01  0.99  0.00  0.00  0.00  0.00  0.00  0.00  0.00
  H0018216                1.00   0.01  0.95  0.00  0.03  0.00  0.00  0.00  0.99  0.00
  H0016792                1.00   0.01  0.95  0.00  0.04  0.00  0.00  0.00  0.99  0.00
  H0019507                1.00   0.01  0.00  0.00  0.99  0.00  0.00  0.00  0.99  0.00
  H0019998                1.00   0.01  0.00  0.00  0.96  0.03  0.00  0.00  0.04  0.00
  H0019576                1.00   0.01  0.00  0.00  0.98  0.01  0.00  0.00  0.04  0.00
  H0020087                1.00   0.01  0.98  0.00  0.00  0.00  0.00  0.00  0.96  0.00
  H0020211                1.00   0.01  0.00  0.00  0.99  0.00  0.00  0.00  0.94  0.00
  H0018982                1.00   0.01  0.00  0.00  0.99  0.00  0.00  0.00  0.97  0.00
  H0018753                1.00   0.01  0.00  0.00  0.99  0.00  0.00  0.00  0.99  0.00
  H0018845                1.00   1.00  0.00  0.00  0.00  0.00  0.00  0.00  0.00  0.00
  H0018863                1.00   0.01  0.00  0.00  0.99  0.00  0.00  0.00  0.99  0.00
  H0019156                1.00   1.00  0.00  0.00  0.00  0.00  0.00  0.00  0.00  0.00
  H0018929                1.00   0.01  0.95  0.00  0.04  0.00  0.00  0.00  0.99  0.00
  H0018440                1.00   0.01  0.00  0.00  0.99  0.00  0.00  0.00  0.99  0.00
  H0018456                1.00   0.01  0.00  0.00  0.99  0.00  0.00  0.00  0.99  0.00
  H0018968                1.00   0.01  0.94  0.00  0.01  0.03  0.00  0.00  0.96  0.00
  H0022036                1.00   0.01  0.00  0.00  0.00  0.00  0.00  0.98  0.00  0.00
  H0021806                1.00   0.01  0.95  0.00  0.03  0.00  0.00  0.00  0.98  0.00
  H0022111                1.00   0.01  0.00  0.00  0.99  0.00  0.00  0.00  0.00  0.00
  H0021440                1.00   0.01  0.00  0.00  0.97  0.01  0.00  0.00  0.01  0.00
  H0021704                1.00   0.01  0.00  0.00  0.00  0.00  0.00  0.99  0.00  0.00
  H0020521                1.00   0.01  0.00  0.00  0.99  0.00  0.00  0.00  0.99  0.00
  H0020755                1.00   0.01  0.96  0.00  0.03  0.00  0.00  0.00  0.99  0.00
  H0020530                1.00   0.01  0.00  0.00  0.98  0.01  0.00  0.00  0.00  0.00
  H0020618                1.00   0.01  0.00  0.00  0.97  0.02  0.00  0.00  0.95  0.00
  H0021163                1.00   0.01  0.00  0.00  0.98  0.00  0.00  0.00  0.96  0.00
  H0020497                1.20   0.01  0.99  0.00  0.00  0.00  0.00  0.00  0.00  0.00
  H0024325                1.00   0.01  0.00  0.00  0.97  0.01  0.00  0.00  0.96  0.00
  H0023585                1.00   0.01  0.00  0.00  0.00  0.00  0.00  0.99  0.00  0.00
  H0024098                1.00   0.01  0.96  0.00  0.03  0.00  0.00  0.00  0.99  0.00
  H0024235                1.00   0.01  0.00  0.00  0.00  0.00  0.00  0.99  0.00  0.00
  H0024282                1.00   1.00  0.00  0.00  0.00  0.00  0.00  0.00  0.00  0.00
  H0024308                1.00   0.01  0.00  0.00  0.95  0.04  0.00  0.00  0.01  0.00
  H0024498                1.00   0.01  0.00  0.00  0.00  0.00  0.00  0.99  0.00  0.00
  H0026990                1.00   0.01  0.00  0.00  0.99  0.00  0.00  0.00  0.99  0.00
  H0041650                1.00   0.96  0.01  0.00  0.03  0.00  0.00  0.00  0.98  0.00
  H0041011                1.00   0.01  0.00  0.00  0.99  0.00  0.00  0.00  0.99  0.00
  H0045103                1.00   0.01  0.00  0.00  0.99  0.00  0.00  0.00  0.97  0.00
  H0045104                1.00   0.01  0.00  0.00  0.95  0.03  0.00  0.00  0.04  0.00
  H0045105                1.00   0.01  0.00  0.00  0.99  0.00  0.00  0.00  0.99  0.00
  H0045106                1.00   0.01  0.95  0.00  0.02  0.02  0.00  0.00  0.99  0.00
  H0045107                1.00   0.01  0.00  0.00  0.99  0.00  0.00  0.00  0.99  0.00
  H0045108                1.00   0.01  0.00  0.00  0.99  0.00  0.00  0.00  0.99  0.00
  
  
  *************************
  Conduit Surcharge Summary
  *************************
  
  No conduits were surcharged.
  

  Analysis begun on:  Thu Mar 21 16:37:51 2024
  Analysis ended on:  Thu Mar 21 16:38:01 2024
  Total elapsed time: 00:00:10