
  EPA STORM WATER MANAGEMENT MODEL - VERSION 5.2 (Build 5.2.4)
  PYSWMM TOOLKIT API - VERSION v1.0 (2023-11-27)
  ------------------------------------------------------------

  Gievenbeck_2015-04-30 15 40 00_hN3 32 
  
  ****************
  Analysis Options
  ****************
  Flow Units ............... CMS
  Process Models:
    Rainfall/Runoff ........ YES
    RDII ................... NO
    Snowmelt ............... NO
    Groundwater ............ NO
    Flow Routing ........... YES
    Ponding Allowed ........ NO
    Water Quality .......... NO
  Infiltration Method ...... HORTON
  Flow Routing Method ...... DYNWAVE
  Surcharge Method ......... SLOT
  Starting Date ............ 01/01/2024 00:00:00
  Ending Date .............. 01/08/2024 04:00:00
  Antecedent Dry Days ...... 14.0
  Report Time Step ......... 00:01:00
  Wet Time Step ............ 00:01:00
  Dry Time Step ............ 00:01:00
  Routing Time Step ........ 1.00 sec
  Variable Time Step ....... YES
  Maximum Trials ........... 8
  Number of Threads ........ 1
  Head Tolerance ........... 0.001500 m
  
  
  **************************        Volume         Depth
  Runoff Quantity Continuity     hectare-m            mm
  **************************     ---------       -------
  Total Precipitation ......         0.034         3.320
  Evaporation Loss .........         0.010         0.953
  Infiltration Loss ........         0.018         1.757
  Surface Runoff ...........         0.006         0.611
  Final Storage ............         0.000         0.000
  Continuity Error (%) .....        -0.028
  
  
  **************************        Volume        Volume
  Flow Routing Continuity        hectare-m      10^6 ltr
  **************************     ---------     ---------
  Dry Weather Inflow .......         0.000         0.000
  Wet Weather Inflow .......         0.006         0.062
  Groundwater Inflow .......         0.000         0.000
  RDII Inflow ..............         0.000         0.000
  External Inflow ..........         0.000         0.000
  External Outflow .........         0.006         0.062
  Flooding Loss ............         0.000         0.000
  Evaporation Loss .........         0.000         0.000
  Exfiltration Loss ........         0.000         0.000
  Initial Stored Volume ....         0.000         0.000
  Final Stored Volume ......         0.000         0.000
  Continuity Error (%) .....         0.051
  
  
  ***************************
  Time-Step Critical Elements
  ***************************
  None
  
  
  ********************************
  Highest Flow Instability Indexes
  ********************************
  All links are stable.
  
  
  *********************************
  Most Frequent Nonconverging Nodes
  *********************************
  Convergence obtained at all time steps.
  
  
  *************************
  Routing Time Step Summary
  *************************
  Minimum Time Step           :     0.50 sec
  Average Time Step           :     1.00 sec
  Maximum Time Step           :     1.00 sec
  % of Time in Steady State   :     0.00
  Average Iterations per Step :     2.00
  % of Steps Not Converging   :     0.00
  Time Step Frequencies       :
      1.000 -  0.871 sec      :   100.00 %
      0.871 -  0.758 sec      :     0.00 %
      0.758 -  0.660 sec      :     0.00 %
      0.660 -  0.574 sec      :     0.00 %
      0.574 -  0.500 sec      :     0.00 %
  
  
  ***************************
  Subcatchment Runoff Summary
  ***************************
  
  ------------------------------------------------------------------------------------------------------------------------------
                            Total      Total      Total      Total     Imperv       Perv      Total       Total     Peak  Runoff
                           Precip      Runon       Evap      Infil     Runoff     Runoff     Runoff      Runoff   Runoff   Coeff
  Subcatchment                 mm         mm         mm         mm         mm         mm         mm    10^6 ltr      CMS
  ------------------------------------------------------------------------------------------------------------------------------
  EZG_368                    3.32       0.00       0.95       1.77       0.71       0.00       0.61        0.00     0.00   0.183
  EZG_392                    3.32       0.00       0.94       1.77       0.72       0.00       0.61        0.00     0.00   0.184
  EZG_352                    3.32       0.00       0.95       1.77       0.71       0.00       0.60        0.00     0.00   0.181
  EZG_372                    3.32       0.00       0.93       1.77       0.73       0.00       0.62        0.00     0.00   0.186
  EZG_416                    3.32       0.00       0.94       1.77       0.72       0.00       0.61        0.00     0.00   0.184
  EZG_388                    3.32       0.00       0.95       1.77       0.71       0.00       0.61        0.00     0.00   0.182
  EZG_394                    3.32       0.00       0.94       1.77       0.72       0.00       0.61        0.00     0.00   0.184
  EZG_400                    3.32       0.00       0.94       1.77       0.72       0.00       0.61        0.00     0.00   0.184
  EZG_390                    3.32       0.00       0.94       1.77       0.72       0.00       0.61        0.00     0.00   0.184
  EZG_350                    3.32       0.00       0.95       1.77       0.71       0.00       0.61        0.00     0.00   0.182
  EZG_370                    3.32       0.00       0.95       1.77       0.72       0.00       0.61        0.00     0.00   0.183
  EZG_398                    3.32       0.00       0.93       1.77       0.73       0.00       0.62        0.00     0.00   0.187
  EZG_382                    3.32       0.00       0.93       1.77       0.73       0.00       0.62        0.00     0.00   0.187
  EZG_374                    3.32       0.00       1.14       1.46       0.85       0.00       0.72        0.00     0.00   0.218
  EZG_412                    3.32       0.00       0.92       1.77       0.74       0.00       0.63        0.00     0.00   0.189
  EZG_344                    3.32       0.00       0.94       1.77       0.72       0.00       0.61        0.00     0.00   0.184
  EZG_376                    3.32       0.00       0.94       1.77       0.72       0.00       0.61        0.00     0.00   0.185
  EZG_356                    3.32       0.00       0.95       1.77       0.71       0.00       0.60        0.00     0.00   0.181
  EZG_386                    3.32       0.00       0.96       1.77       0.70       0.00       0.60        0.00     0.00   0.180
  EZG_380                    3.32       0.00       0.95       1.77       0.71       0.00       0.61        0.00     0.00   0.183
  EZG_378                    3.32       0.00       0.94       1.77       0.72       0.00       0.61        0.00     0.00   0.183
  EZG_414                    3.32       0.00       0.93       1.77       0.73       0.00       0.62        0.00     0.00   0.187
  EZG_402                    3.32       0.00       0.94       1.77       0.72       0.00       0.61        0.00     0.00   0.184
  EZG_358                    3.32       0.00       0.95       1.77       0.71       0.00       0.60        0.00     0.00   0.181
  EZG_364                    3.32       0.00       0.95       1.77       0.71       0.00       0.60        0.00     0.00   0.181
  EZG_410                    3.32       0.00       0.94       1.77       0.72       0.00       0.61        0.00     0.00   0.185
  EZG_366                    3.32       0.00       0.94       1.77       0.72       0.00       0.61        0.00     0.00   0.185
  EZG_18259                  3.32       0.00       0.94       1.77       0.72       0.00       0.61        0.00     0.00   0.185
  EZG_18258                  3.32       0.00       0.93       1.77       0.74       0.00       0.62        0.00     0.00   0.188
  EZG_346                    3.32       0.00       0.93       1.80       0.70       0.00       0.60        0.00     0.00   0.180
  EZG_348                    3.32       0.00       0.92       1.80       0.71       0.00       0.60        0.00     0.00   0.181
  
  
  ******************
  Node Depth Summary
  ******************
  
  ---------------------------------------------------------------------------------
                                 Average  Maximum  Maximum  Time of Max    Reported
                                   Depth    Depth      HGL   Occurrence   Max Depth
  Node                 Type       Meters   Meters   Meters  days hr:min      Meters
  ---------------------------------------------------------------------------------
  R0019466             JUNCTION     0.00     0.06    69.51     0  02:27        0.06
  R0019468             JUNCTION     0.00     0.06    69.37     0  02:29        0.06
  R0019831             JUNCTION     0.00     0.03    69.20     0  02:26        0.03
  R0019825             JUNCTION     0.00     0.05    68.89     0  02:27        0.05
  R0019843             JUNCTION     0.00     0.08    67.71     0  02:34        0.08
  R0019368             JUNCTION     0.00     0.12    66.91     0  02:35        0.12
  R0019369             JUNCTION     0.00     0.09    66.68     0  02:35        0.09
  R0019370             JUNCTION     0.00     0.08    65.98     0  02:36        0.08
  R0019345             JUNCTION     0.00     0.06    69.96     0  02:30        0.06
  R0019346             JUNCTION     0.00     0.05    69.85     0  02:30        0.05
  R0043600             JUNCTION     0.00     0.06    69.73     0  02:31        0.06
  R0019203             JUNCTION     0.00     0.07    69.61     0  02:32        0.07
  R0043594             JUNCTION     0.00     0.05    69.78     0  02:28        0.05
  R0021458             JUNCTION     0.00     0.07    69.72     0  02:29        0.07
  R0019202             JUNCTION     0.00     0.06    69.64     0  02:31        0.06
  R0019373             JUNCTION     0.00     0.03    69.70     0  02:27        0.03
  R0019254             JUNCTION     0.00     0.05    70.09     0  02:28        0.05
  R0019716             JUNCTION     0.00     0.08    69.09     0  02:33        0.08
  R0019946             JUNCTION     0.00     0.14    68.76     0  02:34        0.14
  R0013935             JUNCTION     0.00     0.03    68.86     0  02:26        0.03
  R0019939             JUNCTION     0.00     0.05    68.62     0  02:27        0.05
  R0019944             JUNCTION     0.00     0.07    68.35     0  02:35        0.07
  R0043703             JUNCTION     0.00     0.08    68.68     0  02:35        0.08
  R0019945             JUNCTION     0.00     0.09    68.49     0  02:35        0.09
  R0039621             JUNCTION     0.00     0.00    69.57     0  00:00        0.00
  R0019838             JUNCTION     0.00     0.05    69.51     0  02:30        0.05
  R0039606             JUNCTION     0.00     0.06    69.65     0  02:31        0.06
  R0019204             JUNCTION     0.00     0.00    69.91     0  00:00        0.00
  R0019205             JUNCTION     0.00     0.00    69.62     0  00:00        0.00
  R0019849             JUNCTION     0.00     0.05    68.57     0  02:28        0.05
  R0019371             JUNCTION     0.00     0.00    70.41     0  00:00        0.00
  R0019718             JUNCTION     0.00     0.11    69.53     0  02:34        0.11
  R0021442             JUNCTION     0.00     0.06    70.11     0  02:29        0.06
  R0019247             JUNCTION     0.00     0.07    69.95     0  02:29        0.07
  R0019719             JUNCTION     0.00     0.06    69.74     0  02:30        0.06
  R0019767             JUNCTION     0.00     0.08    64.81     0  02:36        0.08
  R0019768             JUNCTION     0.00     0.07    63.84     0  02:36        0.07
  R0021453             JUNCTION     0.00     0.03    69.98     0  02:25        0.03
  R0019839             JUNCTION     0.00     0.05    69.44     0  02:30        0.05
  R0019717             JUNCTION     0.00     0.08    69.42     0  02:33        0.08
  R0019252             JUNCTION     0.00     0.04    70.23     0  02:26        0.04
  R0019721             JUNCTION     0.00     0.04    69.91     0  02:28        0.04
  R0019942             JUNCTION     0.00     0.04    68.69     0  02:28        0.04
  R0019206             JUNCTION     0.00     0.00    69.07     0  00:00        0.00
  R0019840             JUNCTION     0.00     0.04    69.01     0  02:30        0.04
  R0043702             JUNCTION     0.00     0.06    68.76     0  02:30        0.06
  R0019723             JUNCTION     0.00     0.03    70.11     0  02:26        0.03
  R0019724             JUNCTION     0.00     0.02    70.18     0  02:25        0.02
  R0021433             JUNCTION     0.00     0.04    70.43     0  02:26        0.04
  R0021435             JUNCTION     0.00     0.05    70.23     0  02:28        0.05
  R0019769             OUTFALL      0.00     0.07    63.45     0  02:36        0.07
  
  
  *******************
  Node Inflow Summary
  *******************
  
  -------------------------------------------------------------------------------------------------
                                  Maximum  Maximum                  Lateral       Total        Flow
                                  Lateral    Total  Time of Max      Inflow      Inflow     Balance
                                   Inflow   Inflow   Occurrence      Volume      Volume       Error
  Node                 Type           CMS      CMS  days hr:min    10^6 ltr    10^6 ltr     Percent
  -------------------------------------------------------------------------------------------------
  R0019466             JUNCTION     0.002    0.004     0  02:26     0.00251     0.00469      -0.127
  R0019468             JUNCTION     0.002    0.006     0  02:27     0.00147     0.00616       0.149
  R0019831             JUNCTION     0.002    0.002     0  02:25     0.00197     0.00197      -0.313
  R0019825             JUNCTION     0.002    0.004     0  02:25     0.00198     0.00396      -0.015
  R0019843             JUNCTION     0.000    0.045     0  02:34           0      0.0618      -0.049
  R0019368             JUNCTION     0.000    0.045     0  02:34           0      0.0618       0.001
  R0019369             JUNCTION     0.000    0.045     0  02:35           0      0.0618       0.013
  R0019370             JUNCTION     0.000    0.045     0  02:36           0      0.0618       0.004
  R0019345             JUNCTION     0.000    0.003     0  02:28           0     0.00388       0.489
  R0019346             JUNCTION     0.000    0.006     0  02:29    0.000251      0.0065       0.137
  R0043600             JUNCTION     0.000    0.007     0  02:30           0     0.00751       0.477
  R0019203             JUNCTION     0.001    0.014     0  02:31     0.00055      0.0167      -0.116
  R0043594             JUNCTION     0.003    0.005     0  02:25     0.00356     0.00508      -0.224
  R0021458             JUNCTION     0.002    0.007     0  02:28     0.00278     0.00787      -0.135
  R0019202             JUNCTION     0.001    0.007     0  02:31    0.000837     0.00868      -0.058
  R0019373             JUNCTION     0.002    0.002     0  02:25     0.00218     0.00218      -0.148
  R0019254             JUNCTION     0.002    0.004     0  02:26     0.00178     0.00387      -0.321
  R0019716             JUNCTION     0.002    0.026     0  02:33     0.00276      0.0344      -0.144
  R0019946             JUNCTION     0.000    0.026     0  02:33           0      0.0344       0.186
  R0013935             JUNCTION     0.002    0.002     0  02:25      0.0017      0.0017      -0.274
  R0019939             JUNCTION     0.001    0.002     0  02:25    0.000615     0.00232      -0.144
  R0019944             JUNCTION     0.002    0.032     0  02:35     0.00158      0.0442       0.004
  R0043703             JUNCTION     0.002    0.027     0  02:34     0.00193      0.0363      -0.030
  R0019945             JUNCTION     0.000    0.031     0  02:34           0      0.0426       0.016
  R0039621             JUNCTION     0.000    0.000     0  00:00           0           0       0.000 ltr
  R0019838             JUNCTION     0.003    0.003     0  02:25     0.00385     0.00385      -0.002
  R0039606             JUNCTION     0.000    0.007     0  02:30           0     0.00789       0.492
  R0019204             JUNCTION     0.000    0.000     0  00:00           0           0       0.000 ltr
  R0019205             JUNCTION     0.000    0.000     0  00:00           0           0       0.000 ltr
  R0019849             JUNCTION     0.000    0.006     0  02:28           0     0.00627       0.033
  R0019371             JUNCTION     0.000    0.000     0  00:00           0           0       0.000 ltr
  R0019718             JUNCTION     0.002    0.016     0  02:31     0.00236      0.0191       0.116
  R0021442             JUNCTION     0.002    0.005     0  02:27     0.00274     0.00625      -0.097
  R0019247             JUNCTION     0.001    0.007     0  02:28     0.00123     0.00749      -0.357
  R0019719             JUNCTION     0.001    0.007     0  02:29     0.00129     0.00779      -0.006
  R0019767             JUNCTION     0.000    0.045     0  02:36           0      0.0618       0.007
  R0019768             JUNCTION     0.000    0.045     0  02:36           0      0.0618       0.024
  R0021453             JUNCTION     0.002    0.002     0  02:25     0.00155     0.00155       1.373
  R0019839             JUNCTION     0.003    0.006     0  02:30      0.0038     0.00765      -0.106
  R0019717             JUNCTION     0.004    0.024     0  02:33     0.00477      0.0316      -0.001
  R0019252             JUNCTION     0.002    0.002     0  02:25     0.00209     0.00209      -0.297
  R0019721             JUNCTION     0.001    0.002     0  02:25    0.000541     0.00239      -0.009
  R0019942             JUNCTION     0.000    0.004     0  02:27           0     0.00396       0.154
  R0019206             JUNCTION     0.000    0.000     0  00:00           0           0       0.000 ltr
  R0019840             JUNCTION     0.000    0.011     0  02:30           0      0.0138       0.059
  R0043702             JUNCTION     0.003    0.014     0  02:30     0.00381      0.0176      -0.005
  R0019723             JUNCTION     0.002    0.002     0  02:25     0.00146     0.00184      -0.386
  R0019724             JUNCTION     0.001    0.001     0  02:25    0.000383    0.000383      -0.265
  R0021433             JUNCTION     0.002    0.002     0  02:25     0.00217     0.00217      -0.315
  R0021435             JUNCTION     0.001    0.003     0  02:25     0.00134     0.00352       0.129
  R0019769             OUTFALL      0.000    0.045     0  02:36           0      0.0618       0.000
  
  
  **********************
  Node Surcharge Summary
  **********************
  
  No nodes were surcharged.
  
  
  *********************
  Node Flooding Summary
  *********************
  
  No nodes were flooded.
  
  
  ***********************
  Outfall Loading Summary
  ***********************
  
  -----------------------------------------------------------
                         Flow       Avg       Max       Total
                         Freq      Flow      Flow      Volume
  Outfall Node           Pcnt       CMS       CMS    10^6 ltr
  -----------------------------------------------------------
  R0019769               1.62     0.006     0.045       0.062
  -----------------------------------------------------------
  System                 1.62     0.006     0.045       0.062
  
  
  ********************
  Link Flow Summary
  ********************
  
  -----------------------------------------------------------------------------
                                 Maximum  Time of Max   Maximum    Max/    Max/
                                  |Flow|   Occurrence   |Veloc|    Full    Full
  Link                 Type          CMS  days hr:min     m/sec    Flow   Depth
  -----------------------------------------------------------------------------
  H0014431             CONDUIT     0.004     0  02:27      0.45    0.08    0.19
  H0014433             CONDUIT     0.002     0  02:26      0.33    0.02    0.14
  H0014352             CONDUIT     0.045     0  02:34      1.11    0.02    0.11
  H0014373             CONDUIT     0.045     0  02:36      1.46    0.02    0.09
  H0017981             CONDUIT     0.003     0  02:30      0.41    0.10    0.18
  H0017755             CONDUIT     0.006     0  02:31      0.56    0.05    0.15
  H0017791             CONDUIT     0.004     0  02:28      0.25    0.01    0.07
  H0017357             CONDUIT     0.000     0  00:00      0.00    0.00    0.06
  H0018216             CONDUIT     0.003     0  02:28      0.42    0.06    0.19
  H0016792             CONDUIT     0.026     0  02:33      0.60    0.01    0.12
  H0019507             CONDUIT     0.002     0  02:26      0.31    0.02    0.13
  H0019998             CONDUIT     0.032     0  02:35      1.20    0.01    0.09
  H0019576             CONDUIT     0.027     0  02:35      0.87    0.02    0.10
  H0020087             CONDUIT     0.000     0  00:00      0.00    0.00    0.05
  H0020211             CONDUIT     0.026     0  02:34      0.56    0.06    0.12
  H0018982             CONDUIT     0.007     0  02:30      0.34    0.01    0.07
  H0018753             CONDUIT     0.002     0  02:27      0.29    0.03    0.15
  H0018845             CONDUIT     0.000     0  00:00      0.00    0.00    0.00
  H0018863             CONDUIT     0.002     0  02:27      0.31    0.05    0.17
  H0019156             CONDUIT     0.000     0  00:00      0.00    0.00    0.00
  H0018929             CONDUIT     0.014     0  02:32      0.45    0.01    0.10
  H0018440             CONDUIT     0.005     0  02:29      0.49    0.10    0.22
  H0018456             CONDUIT     0.006     0  02:30      0.58    0.04    0.14
  H0018968             CONDUIT     0.045     0  02:36      1.66    0.02    0.09
  H0022036             CONDUIT     0.002     0  02:25      0.44    0.00    0.02
  H0021806             CONDUIT     0.007     0  02:30      0.51    0.06    0.16
  H0022111             CONDUIT     0.003     0  02:30      0.30    0.02    0.10
  H0021440             CONDUIT     0.024     0  02:33      0.91    0.02    0.09
  H0021704             CONDUIT     0.015     0  02:34      0.46    0.03    0.10
  H0020521             CONDUIT     0.002     0  02:26      0.28    0.04    0.15
  H0020755             CONDUIT     0.002     0  02:28      0.30    0.03    0.12
  H0020530             CONDUIT     0.045     0  02:35      1.05    0.04    0.12
  H0020618             CONDUIT     0.031     0  02:35      1.13    0.02    0.09
  H0021163             CONDUIT     0.004     0  02:27      0.54    0.06    0.15
  H0020497             CONDUIT     0.000     0  00:00      0.00    0.00    0.14
  H0024325             CONDUIT     0.006     0  02:30      0.68    0.02    0.09
  H0023585             CONDUIT     0.014     0  02:30      1.02    0.03    0.12
  H0024098             CONDUIT     0.006     0  02:28      0.66    0.07    0.22
  H0024235             CONDUIT     0.007     0  02:31      0.57    0.03    0.11
  H0024282             CONDUIT     0.000     0  00:00      0.00    0.00    0.00
  H0024308             CONDUIT     0.045     0  02:36      1.87    0.01    0.08
  H0024498             CONDUIT     0.005     0  02:30      0.58    0.08    0.19
  H0026990             CONDUIT     0.002     0  02:26      0.32    0.01    0.10
  H0041650             CONDUIT     0.007     0  02:31      0.36    0.01    0.07
  H0041011             CONDUIT     0.004     0  02:28      0.52    0.04    0.15
  H0045103             CONDUIT     0.007     0  02:31      0.38    0.01    0.06
  H0045104             CONDUIT     0.045     0  02:36      1.56    0.02    0.09
  H0045105             CONDUIT     0.001     0  02:25      0.17    0.01    0.09
  H0045106             CONDUIT     0.011     0  02:30      1.03    0.02    0.11
  H0045107             CONDUIT     0.002     0  02:26      0.34    0.03    0.14
  H0045108             CONDUIT     0.003     0  02:28      0.35    0.06    0.19
  
  
  ***************************
  Flow Classification Summary
  ***************************
  
  -------------------------------------------------------------------------------------
                      Adjusted    ---------- Fraction of Time in Flow Class ---------- 
                       /Actual         Up    Down  Sub   Sup   Up    Down  Norm  Inlet 
  Conduit               Length    Dry  Dry   Dry   Crit  Crit  Crit  Crit  Ltd   Ctrl  
  -------------------------------------------------------------------------------------
  H0014431                1.00   0.01  0.97  0.00  0.02  0.00  0.00  0.00  0.99  0.00
  H0014433                1.00   0.01  0.00  0.00  0.99  0.00  0.00  0.00  0.99  0.00
  H0014352                1.00   0.01  0.00  0.00  0.98  0.01  0.00  0.00  0.99  0.00
  H0014373                1.00   0.01  0.00  0.00  0.97  0.01  0.00  0.00  0.97  0.00
  H0017981                1.00   0.01  0.00  0.00  0.00  0.00  0.00  0.99  0.00  0.00
  H0017755                1.00   0.01  0.00  0.00  0.00  0.00  0.00  0.99  0.00  0.00
  H0017791                1.00   0.01  0.00  0.00  0.99  0.00  0.00  0.00  0.99  0.00
  H0017357                1.00   0.01  0.99  0.00  0.00  0.00  0.00  0.00  0.00  0.00
  H0018216                1.00   0.01  0.97  0.00  0.02  0.00  0.00  0.00  0.99  0.00
  H0016792                1.00   0.01  0.97  0.00  0.02  0.00  0.00  0.00  0.99  0.00
  H0019507                1.00   0.01  0.00  0.00  0.99  0.00  0.00  0.00  0.99  0.00
  H0019998                1.00   0.01  0.00  0.00  0.97  0.01  0.00  0.00  0.02  0.00
  H0019576                1.00   0.01  0.00  0.00  0.98  0.00  0.00  0.00  0.02  0.00
  H0020087                1.00   0.01  0.99  0.00  0.00  0.00  0.00  0.00  0.00  0.00
  H0020211                1.00   0.01  0.00  0.00  0.99  0.00  0.00  0.00  0.97  0.00
  H0018982                1.00   0.01  0.00  0.00  0.99  0.00  0.00  0.00  0.98  0.00
  H0018753                1.00   0.01  0.00  0.00  0.99  0.00  0.00  0.00  0.99  0.00
  H0018845                1.00   1.00  0.00  0.00  0.00  0.00  0.00  0.00  0.00  0.00
  H0018863                1.00   0.01  0.00  0.00  0.99  0.00  0.00  0.00  0.99  0.00
  H0019156                1.00   1.00  0.00  0.00  0.00  0.00  0.00  0.00  0.00  0.00
  H0018929                1.00   0.01  0.97  0.00  0.02  0.00  0.00  0.00  0.99  0.00
  H0018440                1.00   0.01  0.00  0.00  0.99  0.00  0.00  0.00  0.99  0.00
  H0018456                1.00   0.01  0.00  0.00  0.99  0.00  0.00  0.00  0.99  0.00
  H0018968                1.00   0.01  0.96  0.00  0.01  0.02  0.00  0.00  0.97  0.00
  H0022036                1.00   0.01  0.00  0.00  0.00  0.00  0.00  0.98  0.00  0.00
  H0021806                1.00   0.01  0.97  0.00  0.02  0.00  0.00  0.00  0.98  0.00
  H0022111                1.00   0.01  0.00  0.00  0.99  0.00  0.00  0.00  0.00  0.00
  H0021440                1.00   0.01  0.00  0.00  0.98  0.01  0.00  0.00  0.01  0.00
  H0021704                1.00   0.01  0.00  0.00  0.00  0.00  0.00  0.99  0.00  0.00
  H0020521                1.00   0.01  0.00  0.00  0.99  0.00  0.00  0.00  0.99  0.00
  H0020755                1.00   0.01  0.97  0.00  0.01  0.00  0.00  0.00  0.99  0.00
  H0020530                1.00   0.01  0.00  0.00  0.98  0.01  0.00  0.00  0.00  0.00
  H0020618                1.00   0.01  0.00  0.00  0.98  0.01  0.00  0.00  0.97  0.00
  H0021163                1.00   0.01  0.00  0.00  0.99  0.00  0.00  0.00  0.98  0.00
  H0020497                1.20   0.01  0.99  0.00  0.00  0.00  0.00  0.00  0.00  0.00
  H0024325                1.00   0.01  0.00  0.00  0.98  0.01  0.00  0.00  0.98  0.00
  H0023585                1.00   0.01  0.00  0.00  0.00  0.00  0.00  0.99  0.00  0.00
  H0024098                1.00   0.01  0.97  0.00  0.02  0.00  0.00  0.00  0.99  0.00
  H0024235                1.00   0.01  0.00  0.00  0.00  0.00  0.00  0.99  0.00  0.00
  H0024282                1.00   1.00  0.00  0.00  0.00  0.00  0.00  0.00  0.00  0.00
  H0024308                1.00   0.01  0.00  0.00  0.97  0.02  0.00  0.00  0.00  0.00
  H0024498                1.00   0.01  0.00  0.00  0.00  0.00  0.00  0.99  0.00  0.00
  H0026990                1.00   0.01  0.00  0.00  0.99  0.00  0.00  0.00  0.99  0.00
  H0041650                1.00   0.98  0.00  0.00  0.01  0.00  0.00  0.00  0.99  0.00
  H0041011                1.00   0.01  0.00  0.00  0.99  0.00  0.00  0.00  0.99  0.00
  H0045103                1.00   0.01  0.00  0.00  0.99  0.00  0.00  0.00  0.98  0.00
  H0045104                1.00   0.01  0.00  0.00  0.97  0.02  0.00  0.00  0.02  0.00
  H0045105                1.00   0.01  0.00  0.00  0.99  0.00  0.00  0.00  0.99  0.00
  H0045106                1.00   0.01  0.97  0.00  0.01  0.01  0.00  0.00  0.99  0.00
  H0045107                1.00   0.01  0.00  0.00  0.99  0.00  0.00  0.00  0.99  0.00
  H0045108                1.00   0.01  0.00  0.00  0.99  0.00  0.00  0.00  0.99  0.00
  
  
  *************************
  Conduit Surcharge Summary
  *************************
  
  No conduits were surcharged.
  

  Analysis begun on:  Thu Mar 21 16:38:29 2024
  Analysis ended on:  Thu Mar 21 16:38:39 2024
  Total elapsed time: 00:00:10