
  EPA STORM WATER MANAGEMENT MODEL - VERSION 5.2 (Build 5.2.4)
  PYSWMM TOOLKIT API - VERSION v1.0 (2023-11-27)
  ------------------------------------------------------------

  Gievenbeck_2015-05-19 13 20 00_hN2 36 
  
  ****************
  Analysis Options
  ****************
  Flow Units ............... CMS
  Process Models:
    Rainfall/Runoff ........ YES
    RDII ................... NO
    Snowmelt ............... NO
    Groundwater ............ NO
    Flow Routing ........... YES
    Ponding Allowed ........ NO
    Water Quality .......... NO
  Infiltration Method ...... HORTON
  Flow Routing Method ...... DYNWAVE
  Surcharge Method ......... SLOT
  Starting Date ............ 01/01/2024 00:00:00
  Ending Date .............. 01/04/2024 04:00:00
  Antecedent Dry Days ...... 14.0
  Report Time Step ......... 00:01:00
  Wet Time Step ............ 00:01:00
  Dry Time Step ............ 00:01:00
  Routing Time Step ........ 1.00 sec
  Variable Time Step ....... YES
  Maximum Trials ........... 8
  Number of Threads ........ 1
  Head Tolerance ........... 0.001500 m
  
  
  **************************        Volume         Depth
  Runoff Quantity Continuity     hectare-m            mm
  **************************     ---------       -------
  Total Precipitation ......         0.024         2.360
  Evaporation Loss .........         0.010         0.964
  Infiltration Loss ........         0.012         1.206
  Surface Runoff ...........         0.002         0.190
  Final Storage ............         0.000         0.000
  Continuity Error (%) .....        -0.032
  
  
  **************************        Volume        Volume
  Flow Routing Continuity        hectare-m      10^6 ltr
  **************************     ---------     ---------
  Dry Weather Inflow .......         0.000         0.000
  Wet Weather Inflow .......         0.002         0.019
  Groundwater Inflow .......         0.000         0.000
  RDII Inflow ..............         0.000         0.000
  External Inflow ..........         0.000         0.000
  External Outflow .........         0.002         0.019
  Flooding Loss ............         0.000         0.000
  Evaporation Loss .........         0.000         0.000
  Exfiltration Loss ........         0.000         0.000
  Initial Stored Volume ....         0.000         0.000
  Final Stored Volume ......         0.000         0.000
  Continuity Error (%) .....         0.000
  
  
  *************************
  Highest Continuity Errors
  *************************
  Node R0043594 (-1.01%)
  
  
  ***************************
  Time-Step Critical Elements
  ***************************
  None
  
  
  ********************************
  Highest Flow Instability Indexes
  ********************************
  All links are stable.
  
  
  *********************************
  Most Frequent Nonconverging Nodes
  *********************************
  Convergence obtained at all time steps.
  
  
  *************************
  Routing Time Step Summary
  *************************
  Minimum Time Step           :     0.50 sec
  Average Time Step           :     1.00 sec
  Maximum Time Step           :     1.00 sec
  % of Time in Steady State   :     0.00
  Average Iterations per Step :     2.00
  % of Steps Not Converging   :     0.00
  Time Step Frequencies       :
      1.000 -  0.871 sec      :   100.00 %
      0.871 -  0.758 sec      :     0.00 %
      0.758 -  0.660 sec      :     0.00 %
      0.660 -  0.574 sec      :     0.00 %
      0.574 -  0.500 sec      :     0.00 %
  
  
  ***************************
  Subcatchment Runoff Summary
  ***************************
  
  ------------------------------------------------------------------------------------------------------------------------------
                            Total      Total      Total      Total     Imperv       Perv      Total       Total     Peak  Runoff
                           Precip      Runon       Evap      Infil     Runoff     Runoff     Runoff      Runoff   Runoff   Coeff
  Subcatchment                 mm         mm         mm         mm         mm         mm         mm    10^6 ltr      CMS
  ------------------------------------------------------------------------------------------------------------------------------
  EZG_368                    2.36       0.00       0.96       1.21       0.22       0.00       0.19        0.00     0.00   0.080
  EZG_392                    2.36       0.00       0.96       1.21       0.22       0.00       0.19        0.00     0.00   0.081
  EZG_352                    2.36       0.00       0.96       1.21       0.22       0.00       0.18        0.00     0.00   0.078
  EZG_372                    2.36       0.00       0.95       1.22       0.23       0.00       0.20        0.00     0.00   0.084
  EZG_416                    2.36       0.00       0.95       1.21       0.23       0.00       0.19        0.00     0.00   0.081
  EZG_388                    2.36       0.00       0.96       1.21       0.22       0.00       0.19        0.00     0.00   0.080
  EZG_394                    2.36       0.00       0.95       1.21       0.23       0.00       0.19        0.00     0.00   0.082
  EZG_400                    2.36       0.00       0.95       1.21       0.23       0.00       0.19        0.00     0.00   0.082
  EZG_390                    2.36       0.00       0.96       1.21       0.23       0.00       0.19        0.00     0.00   0.081
  EZG_350                    2.36       0.00       0.96       1.21       0.22       0.00       0.19        0.00     0.00   0.079
  EZG_370                    2.36       0.00       0.96       1.21       0.22       0.00       0.19        0.00     0.00   0.081
  EZG_398                    2.36       0.00       0.94       1.22       0.24       0.00       0.20        0.00     0.00   0.085
  EZG_382                    2.36       0.00       0.94       1.22       0.24       0.00       0.20        0.00     0.00   0.086
  EZG_374                    2.36       0.00       1.15       0.98       0.26       0.00       0.22        0.00     0.00   0.094
  EZG_412                    2.36       0.00       0.94       1.22       0.24       0.00       0.21        0.00     0.00   0.088
  EZG_344                    2.36       0.00       0.95       1.21       0.23       0.00       0.19        0.00     0.00   0.082
  EZG_376                    2.36       0.00       0.95       1.21       0.23       0.00       0.20        0.00     0.00   0.083
  EZG_356                    2.36       0.00       0.96       1.21       0.22       0.00       0.18        0.00     0.00   0.078
  EZG_386                    2.36       0.00       0.97       1.21       0.21       0.00       0.18        0.00     0.00   0.077
  EZG_380                    2.36       0.00       0.96       1.21       0.22       0.00       0.19        0.00     0.00   0.080
  EZG_378                    2.36       0.00       0.96       1.21       0.22       0.00       0.19        0.00     0.00   0.081
  EZG_414                    2.36       0.00       0.94       1.22       0.24       0.00       0.20        0.00     0.00   0.086
  EZG_402                    2.36       0.00       0.96       1.21       0.22       0.00       0.19        0.00     0.00   0.081
  EZG_358                    2.36       0.00       0.96       1.21       0.22       0.00       0.18        0.00     0.00   0.078
  EZG_364                    2.36       0.00       0.96       1.21       0.22       0.00       0.18        0.00     0.00   0.078
  EZG_410                    2.36       0.00       0.95       1.21       0.23       0.00       0.20        0.00     0.00   0.083
  EZG_366                    2.36       0.00       0.95       1.21       0.23       0.00       0.19        0.00     0.00   0.082
  EZG_18259                  2.36       0.00       0.95       1.21       0.23       0.00       0.19        0.00     0.00   0.082
  EZG_18258                  2.36       0.00       0.94       1.22       0.24       0.00       0.21        0.00     0.00   0.087
  EZG_346                    2.36       0.00       0.94       1.24       0.22       0.00       0.19        0.00     0.00   0.079
  EZG_348                    2.36       0.00       0.93       1.24       0.23       0.00       0.19        0.00     0.00   0.081
  
  
  ******************
  Node Depth Summary
  ******************
  
  ---------------------------------------------------------------------------------
                                 Average  Maximum  Maximum  Time of Max    Reported
                                   Depth    Depth      HGL   Occurrence   Max Depth
  Node                 Type       Meters   Meters   Meters  days hr:min      Meters
  ---------------------------------------------------------------------------------
  R0019466             JUNCTION     0.00     0.03    69.48     0  02:57        0.03
  R0019468             JUNCTION     0.00     0.03    69.34     0  03:00        0.03
  R0019831             JUNCTION     0.00     0.02    69.19     0  02:55        0.02
  R0019825             JUNCTION     0.00     0.03    68.87     0  02:57        0.03
  R0019843             JUNCTION     0.00     0.04    67.67     0  03:08        0.04
  R0019368             JUNCTION     0.00     0.06    66.85     0  03:09        0.06
  R0019369             JUNCTION     0.00     0.04    66.63     0  03:10        0.04
  R0019370             JUNCTION     0.00     0.04    65.94     0  03:10        0.04
  R0019345             JUNCTION     0.00     0.04    69.94     0  03:00        0.04
  R0019346             JUNCTION     0.00     0.03    69.83     0  03:00        0.03
  R0043600             JUNCTION     0.00     0.03    69.70     0  03:03        0.03
  R0019203             JUNCTION     0.00     0.04    69.58     0  03:03        0.04
  R0043594             JUNCTION     0.00     0.03    69.76     0  02:57        0.03
  R0021458             JUNCTION     0.00     0.04    69.69     0  03:00        0.04
  R0019202             JUNCTION     0.00     0.03    69.61     0  03:03        0.03
  R0019373             JUNCTION     0.00     0.02    69.69     0  02:56        0.02
  R0019254             JUNCTION     0.00     0.03    70.07     0  02:57        0.03
  R0019716             JUNCTION     0.00     0.04    69.05     0  03:06        0.04
  R0019946             JUNCTION     0.00     0.08    68.70     0  03:08        0.08
  R0013935             JUNCTION     0.00     0.02    68.85     0  02:55        0.02
  R0019939             JUNCTION     0.00     0.03    68.60     0  02:56        0.03
  R0019944             JUNCTION     0.00     0.04    68.32     0  03:09        0.04
  R0043703             JUNCTION     0.00     0.04    68.64     0  03:09        0.04
  R0019945             JUNCTION     0.00     0.04    68.44     0  03:09        0.04
  R0039621             JUNCTION     0.00     0.00    69.57     0  00:00        0.00
  R0019838             JUNCTION     0.00     0.03    69.49     0  02:58        0.03
  R0039606             JUNCTION     0.00     0.03    69.62     0  03:03        0.03
  R0019204             JUNCTION     0.00     0.00    69.91     0  00:00        0.00
  R0019205             JUNCTION     0.00     0.00    69.62     0  00:00        0.00
  R0019849             JUNCTION     0.00     0.03    68.55     0  02:58        0.03
  R0019371             JUNCTION     0.00     0.00    70.41     0  00:00        0.00
  R0019718             JUNCTION     0.00     0.06    69.48     0  03:06        0.06
  R0021442             JUNCTION     0.00     0.04    70.09     0  02:58        0.04
  R0019247             JUNCTION     0.00     0.04    69.92     0  03:00        0.04
  R0019719             JUNCTION     0.00     0.03    69.71     0  03:02        0.03
  R0019767             JUNCTION     0.00     0.04    64.77     0  03:11        0.04
  R0019768             JUNCTION     0.00     0.04    63.81     0  03:11        0.04
  R0021453             JUNCTION     0.00     0.02    69.97     0  02:56        0.02
  R0019839             JUNCTION     0.00     0.03    69.42     0  02:58        0.03
  R0019717             JUNCTION     0.00     0.04    69.38     0  03:05        0.04
  R0019252             JUNCTION     0.00     0.02    70.21     0  02:56        0.02
  R0019721             JUNCTION     0.00     0.03    69.90     0  02:57        0.03
  R0019942             JUNCTION     0.00     0.02    68.67     0  02:58        0.02
  R0019206             JUNCTION     0.00     0.00    69.07     0  00:00        0.00
  R0019840             JUNCTION     0.00     0.02    68.99     0  03:00        0.02
  R0043702             JUNCTION     0.00     0.03    68.73     0  03:00        0.03
  R0019723             JUNCTION     0.00     0.02    70.10     0  02:56        0.02
  R0019724             JUNCTION     0.00     0.01    70.17     0  02:55        0.01
  R0021433             JUNCTION     0.00     0.02    70.41     0  02:56        0.02
  R0021435             JUNCTION     0.00     0.03    70.21     0  02:57        0.03
  R0019769             OUTFALL      0.00     0.04    63.42     0  03:11        0.04
  
  
  *******************
  Node Inflow Summary
  *******************
  
  -------------------------------------------------------------------------------------------------
                                  Maximum  Maximum                  Lateral       Total        Flow
                                  Lateral    Total  Time of Max      Inflow      Inflow     Balance
                                   Inflow   Inflow   Occurrence      Volume      Volume       Error
  Node                 Type           CMS      CMS  days hr:min    10^6 ltr    10^6 ltr     Percent
  -------------------------------------------------------------------------------------------------
  R0019466             JUNCTION     0.001    0.001     0  02:55     0.00078     0.00146      -0.205
  R0019468             JUNCTION     0.001    0.002     0  02:57    0.000465     0.00193       0.296
  R0019831             JUNCTION     0.001    0.001     0  02:55    0.000619    0.000619      -0.590
  R0019825             JUNCTION     0.001    0.001     0  02:55    0.000621     0.00124      -0.016
  R0019843             JUNCTION     0.000    0.010     0  03:08           0      0.0193      -0.081
  R0019368             JUNCTION     0.000    0.010     0  03:08           0      0.0193       0.012
  R0019369             JUNCTION     0.000    0.010     0  03:09           0      0.0193       0.020
  R0019370             JUNCTION     0.000    0.010     0  03:10           0      0.0193       0.004
  R0019345             JUNCTION     0.000    0.001     0  02:57           0     0.00123       1.006
  R0019346             JUNCTION     0.000    0.002     0  02:59    8.31e-05     0.00206       0.227
  R0043600             JUNCTION     0.000    0.002     0  03:01           0     0.00236       0.885
  R0019203             JUNCTION     0.000    0.004     0  03:03    0.000179     0.00523      -0.238
  R0043594             JUNCTION     0.001    0.001     0  02:55     0.00109     0.00158      -0.998
  R0021458             JUNCTION     0.001    0.002     0  02:56    0.000861     0.00246      -0.245
  R0019202             JUNCTION     0.000    0.002     0  03:02     0.00027     0.00271      -0.094
  R0019373             JUNCTION     0.001    0.001     0  02:55    0.000682    0.000682      -0.283
  R0019254             JUNCTION     0.001    0.001     0  02:55     0.00056     0.00122      -0.679
  R0019716             JUNCTION     0.001    0.006     0  03:05    0.000856      0.0107      -0.266
  R0019946             JUNCTION     0.000    0.006     0  03:06           0      0.0108       0.377
  R0013935             JUNCTION     0.001    0.001     0  02:55    0.000535    0.000535      -0.552
  R0019939             JUNCTION     0.000    0.001     0  02:55      0.0002    0.000737      -0.232
  R0019944             JUNCTION     0.001    0.007     0  03:09    0.000498      0.0138       0.001
  R0043703             JUNCTION     0.001    0.006     0  03:08    0.000606      0.0113      -0.097
  R0019945             JUNCTION     0.000    0.007     0  03:08           0      0.0133       0.039
  R0039621             JUNCTION     0.000    0.000     0  00:00           0           0       0.000 ltr
  R0019838             JUNCTION     0.001    0.001     0  02:55     0.00118     0.00118       0.020
  R0039606             JUNCTION     0.000    0.002     0  03:01           0     0.00246       0.919
  R0019204             JUNCTION     0.000    0.000     0  00:00           0           0       0.000 ltr
  R0019205             JUNCTION     0.000    0.000     0  00:00           0           0       0.000 ltr
  R0019849             JUNCTION     0.000    0.002     0  02:58           0     0.00198       0.120
  R0019371             JUNCTION     0.000    0.000     0  00:00           0           0       0.000 ltr
  R0019718             JUNCTION     0.001    0.004     0  03:03    0.000737     0.00598       0.260
  R0021442             JUNCTION     0.001    0.002     0  02:57    0.000845     0.00195      -0.158
  R0019247             JUNCTION     0.000    0.002     0  02:58    0.000391     0.00234      -0.676
  R0019719             JUNCTION     0.000    0.002     0  03:00     0.00041     0.00247       0.017
  R0019767             JUNCTION     0.000    0.010     0  03:10           0      0.0193       0.014
  R0019768             JUNCTION     0.000    0.010     0  03:11           0      0.0193       0.026
  R0021453             JUNCTION     0.001    0.001     0  02:55     0.00049     0.00049       0.023
  R0019839             JUNCTION     0.001    0.002     0  02:56     0.00116     0.00234      -0.232
  R0019717             JUNCTION     0.001    0.006     0  03:05     0.00145     0.00988      -0.009
  R0019252             JUNCTION     0.001    0.001     0  02:55    0.000653    0.000653      -0.528
  R0019721             JUNCTION     0.000    0.001     0  02:55    0.000176    0.000768       0.066
  R0019942             JUNCTION     0.000    0.001     0  02:57           0     0.00124       0.275
  R0019206             JUNCTION     0.000    0.000     0  00:00           0           0       0.000 ltr
  R0019840             JUNCTION     0.000    0.003     0  02:59           0     0.00427       0.118
  R0043702             JUNCTION     0.001    0.004     0  02:59     0.00117     0.00544      -0.001
  R0019723             JUNCTION     0.001    0.001     0  02:55    0.000461    0.000587      -0.724
  R0019724             JUNCTION     0.000    0.000     0  02:55    0.000126    0.000126      -0.115
  R0021433             JUNCTION     0.001    0.001     0  02:55    0.000679    0.000679      -0.576
  R0021435             JUNCTION     0.001    0.001     0  02:55    0.000426     0.00111       0.279
  R0019769             OUTFALL      0.000    0.010     0  03:11           0      0.0193       0.000
  
  
  **********************
  Node Surcharge Summary
  **********************
  
  No nodes were surcharged.
  
  
  *********************
  Node Flooding Summary
  *********************
  
  No nodes were flooded.
  
  
  ***********************
  Outfall Loading Summary
  ***********************
  
  -----------------------------------------------------------
                         Flow       Avg       Max       Total
                         Freq      Flow      Flow      Volume
  Outfall Node           Pcnt       CMS       CMS    10^6 ltr
  -----------------------------------------------------------
  R0019769               3.34     0.002     0.010       0.019
  -----------------------------------------------------------
  System                 3.34     0.002     0.010       0.019
  
  
  ********************
  Link Flow Summary
  ********************
  
  -----------------------------------------------------------------------------
                                 Maximum  Time of Max   Maximum    Max/    Max/
                                  |Flow|   Occurrence   |Veloc|    Full    Full
  Link                 Type          CMS  days hr:min     m/sec    Flow   Depth
  -----------------------------------------------------------------------------
  H0014431             CONDUIT     0.001     0  02:58      0.32    0.02    0.11
  H0014433             CONDUIT     0.001     0  02:55      0.24    0.01    0.08
  H0014352             CONDUIT     0.010     0  03:08      0.69    0.00    0.06
  H0014373             CONDUIT     0.010     0  03:10      0.92    0.00    0.05
  H0017981             CONDUIT     0.001     0  03:00      0.26    0.03    0.10
  H0017755             CONDUIT     0.002     0  03:03      0.39    0.01    0.08
  H0017791             CONDUIT     0.001     0  02:57      0.19    0.00    0.04
  H0017357             CONDUIT     0.000     0  00:00      0.00    0.00    0.03
  H0018216             CONDUIT     0.001     0  02:57      0.30    0.02    0.11
  H0016792             CONDUIT     0.006     0  03:06      0.40    0.00    0.07
  H0019507             CONDUIT     0.001     0  02:55      0.24    0.01    0.08
  H0019998             CONDUIT     0.007     0  03:09      0.77    0.00    0.04
  H0019576             CONDUIT     0.006     0  03:09      0.56    0.00    0.05
  H0020087             CONDUIT     0.000     0  00:00      0.00    0.00    0.03
  H0020211             CONDUIT     0.006     0  03:08      0.32    0.02    0.07
  H0018982             CONDUIT     0.002     0  03:01      0.23    0.00    0.04
  H0018753             CONDUIT     0.001     0  02:56      0.21    0.01    0.09
  H0018845             CONDUIT     0.000     0  00:00      0.00    0.00    0.00
  H0018863             CONDUIT     0.001     0  02:56      0.23    0.02    0.10
  H0019156             CONDUIT     0.000     0  00:00      0.00    0.00    0.00
  H0018929             CONDUIT     0.004     0  03:03      0.28    0.00    0.06
  H0018440             CONDUIT     0.002     0  02:58      0.35    0.03    0.12
  H0018456             CONDUIT     0.002     0  03:00      0.41    0.01    0.08
  H0018968             CONDUIT     0.010     0  03:11      1.04    0.00    0.04
  H0022036             CONDUIT     0.000     0  02:56      0.36    0.00    0.01
  H0021806             CONDUIT     0.002     0  03:01      0.35    0.02    0.09
  H0022111             CONDUIT     0.001     0  02:58      0.20    0.01    0.06
  H0021440             CONDUIT     0.006     0  03:06      0.60    0.00    0.04
  H0021704             CONDUIT     0.004     0  03:06      0.28    0.01    0.05
  H0020521             CONDUIT     0.001     0  02:56      0.21    0.01    0.09
  H0020755             CONDUIT     0.001     0  02:58      0.22    0.01    0.07
  H0020530             CONDUIT     0.010     0  03:09      0.66    0.01    0.06
  H0020618             CONDUIT     0.007     0  03:09      0.71    0.00    0.04
  H0021163             CONDUIT     0.001     0  02:57      0.38    0.02    0.09
  H0020497             CONDUIT     0.000     0  00:00      0.00    0.00    0.07
  H0024325             CONDUIT     0.002     0  02:58      0.47    0.01    0.05
  H0023585             CONDUIT     0.004     0  03:00      0.69    0.01    0.07
  H0024098             CONDUIT     0.002     0  02:58      0.49    0.02    0.11
  H0024235             CONDUIT     0.002     0  03:02      0.40    0.01    0.06
  H0024282             CONDUIT     0.000     0  00:00      0.00    0.00    0.00
  H0024308             CONDUIT     0.010     0  03:11      1.17    0.00    0.04
  H0024498             CONDUIT     0.002     0  03:00      0.40    0.02    0.10
  H0026990             CONDUIT     0.001     0  02:56      0.25    0.00    0.06
  H0041650             CONDUIT     0.002     0  03:03      0.24    0.00    0.04
  H0041011             CONDUIT     0.001     0  02:58      0.36    0.01    0.09
  H0045103             CONDUIT     0.002     0  03:03      0.26    0.00    0.04
  H0045104             CONDUIT     0.010     0  03:10      0.98    0.00    0.04
  H0045105             CONDUIT     0.000     0  02:55      0.13    0.00    0.05
  H0045106             CONDUIT     0.003     0  03:00      0.72    0.00    0.06
  H0045107             CONDUIT     0.001     0  02:56      0.26    0.01    0.08
  H0045108             CONDUIT     0.001     0  02:57      0.25    0.02    0.10
  
  
  ***************************
  Flow Classification Summary
  ***************************
  
  -------------------------------------------------------------------------------------
                      Adjusted    ---------- Fraction of Time in Flow Class ---------- 
                       /Actual         Up    Down  Sub   Sup   Up    Down  Norm  Inlet 
  Conduit               Length    Dry  Dry   Dry   Crit  Crit  Crit  Crit  Ltd   Ctrl  
  -------------------------------------------------------------------------------------
  H0014431                1.00   0.04  0.00  0.00  0.96  0.00  0.00  0.00  0.96  0.00
  H0014433                1.00   0.04  0.00  0.00  0.96  0.00  0.00  0.00  0.96  0.00
  H0014352                1.00   0.04  0.00  0.00  0.95  0.01  0.00  0.00  0.96  0.00
  H0014373                1.00   0.04  0.00  0.00  0.94  0.03  0.00  0.00  0.92  0.00
  H0017981                1.00   0.04  0.00  0.00  0.00  0.00  0.00  0.96  0.00  0.00
  H0017755                1.00   0.04  0.00  0.00  0.00  0.00  0.00  0.96  0.00  0.00
  H0017791                1.00   0.04  0.00  0.00  0.96  0.00  0.00  0.00  0.96  0.00
  H0017357                1.00   0.04  0.96  0.00  0.00  0.00  0.00  0.00  0.00  0.00
  H0018216                1.00   0.04  0.93  0.00  0.03  0.00  0.00  0.00  0.96  0.00
  H0016792                1.00   0.04  0.92  0.00  0.04  0.00  0.00  0.00  0.96  0.00
  H0019507                1.00   0.04  0.00  0.00  0.96  0.00  0.00  0.00  0.96  0.00
  H0019998                1.00   0.04  0.00  0.00  0.94  0.03  0.00  0.00  0.04  0.00
  H0019576                1.00   0.04  0.00  0.00  0.96  0.00  0.00  0.00  0.04  0.00
  H0020087                1.00   0.04  0.96  0.00  0.00  0.00  0.00  0.00  0.00  0.00
  H0020211                1.00   0.04  0.00  0.00  0.96  0.00  0.00  0.00  0.92  0.00
  H0018982                1.00   0.04  0.00  0.00  0.96  0.00  0.00  0.00  0.94  0.00
  H0018753                1.00   0.04  0.00  0.00  0.96  0.00  0.00  0.00  0.96  0.00
  H0018845                1.00   1.00  0.00  0.00  0.00  0.00  0.00  0.00  0.00  0.00
  H0018863                1.00   0.04  0.00  0.00  0.96  0.00  0.00  0.00  0.96  0.00
  H0019156                1.00   1.00  0.00  0.00  0.00  0.00  0.00  0.00  0.00  0.00
  H0018929                1.00   0.04  0.93  0.00  0.04  0.00  0.00  0.00  0.96  0.00
  H0018440                1.00   0.04  0.00  0.00  0.96  0.00  0.00  0.00  0.96  0.00
  H0018456                1.00   0.04  0.00  0.00  0.96  0.00  0.00  0.00  0.96  0.00
  H0018968                1.00   0.04  0.00  0.00  0.93  0.03  0.00  0.00  0.94  0.00
  H0022036                1.00   0.04  0.00  0.00  0.00  0.00  0.00  0.96  0.00  0.00
  H0021806                1.00   0.04  0.93  0.00  0.03  0.00  0.00  0.00  0.96  0.00
  H0022111                1.00   0.04  0.00  0.00  0.96  0.00  0.00  0.00  0.00  0.00
  H0021440                1.00   0.04  0.00  0.00  0.95  0.01  0.00  0.00  0.01  0.00
  H0021704                1.00   0.04  0.00  0.00  0.00  0.00  0.00  0.96  0.00  0.00
  H0020521                1.00   0.04  0.00  0.00  0.96  0.00  0.00  0.00  0.96  0.00
  H0020755                1.00   0.04  0.93  0.00  0.03  0.00  0.00  0.00  0.96  0.00
  H0020530                1.00   0.04  0.00  0.00  0.95  0.01  0.00  0.00  0.00  0.00
  H0020618                1.00   0.04  0.00  0.00  0.94  0.02  0.00  0.00  0.92  0.00
  H0021163                1.00   0.04  0.00  0.00  0.96  0.00  0.00  0.00  0.94  0.00
  H0020497                1.20   0.04  0.96  0.00  0.00  0.00  0.00  0.00  0.00  0.00
  H0024325                1.00   0.04  0.00  0.00  0.95  0.01  0.00  0.00  0.94  0.00
  H0023585                1.00   0.04  0.00  0.00  0.00  0.00  0.00  0.96  0.00  0.00
  H0024098                1.00   0.04  0.93  0.00  0.03  0.00  0.00  0.00  0.96  0.00
  H0024235                1.00   0.04  0.00  0.00  0.00  0.00  0.00  0.96  0.00  0.00
  H0024282                1.00   1.00  0.00  0.00  0.00  0.00  0.00  0.00  0.00  0.00
  H0024308                1.00   0.04  0.00  0.00  0.92  0.04  0.00  0.00  0.00  0.00
  H0024498                1.00   0.04  0.00  0.00  0.00  0.00  0.00  0.96  0.00  0.00
  H0026990                1.00   0.04  0.00  0.00  0.96  0.00  0.00  0.00  0.96  0.00
  H0041650                1.00   0.96  0.01  0.00  0.03  0.00  0.00  0.00  0.96  0.00
  H0041011                1.00   0.04  0.00  0.00  0.96  0.00  0.00  0.00  0.96  0.00
  H0045103                1.00   0.04  0.00  0.00  0.96  0.00  0.00  0.00  0.95  0.00
  H0045104                1.00   0.04  0.00  0.00  0.93  0.03  0.00  0.00  0.04  0.00
  H0045105                1.00   0.04  0.00  0.00  0.96  0.00  0.00  0.00  0.96  0.00
  H0045106                1.00   0.04  0.93  0.00  0.02  0.02  0.00  0.00  0.96  0.00
  H0045107                1.00   0.04  0.00  0.00  0.96  0.00  0.00  0.00  0.96  0.00
  H0045108                1.00   0.04  0.00  0.00  0.96  0.00  0.00  0.00  0.96  0.00
  
  
  *************************
  Conduit Surcharge Summary
  *************************
  
  No conduits were surcharged.
  

  Analysis begun on:  Fri Mar 22 15:54:39 2024
  Analysis ended on:  Fri Mar 22 15:54:48 2024
  Total elapsed time: 00:00:09