
  EPA STORM WATER MANAGEMENT MODEL - VERSION 5.2 (Build 5.2.4)
  PYSWMM TOOLKIT API - VERSION v1.0 (2023-11-27)
  ------------------------------------------------------------

  Gievenbeck_2016-03-28 13 05 00_hN2 69 
  
  ****************
  Analysis Options
  ****************
  Flow Units ............... CMS
  Process Models:
    Rainfall/Runoff ........ YES
    RDII ................... NO
    Snowmelt ............... NO
    Groundwater ............ NO
    Flow Routing ........... YES
    Ponding Allowed ........ NO
    Water Quality .......... NO
  Infiltration Method ...... HORTON
  Flow Routing Method ...... DYNWAVE
  Surcharge Method ......... SLOT
  Starting Date ............ 01/01/2024 00:00:00
  Ending Date .............. 01/08/2024 04:00:00
  Antecedent Dry Days ...... 14.0
  Report Time Step ......... 00:01:00
  Wet Time Step ............ 00:01:00
  Dry Time Step ............ 00:01:00
  Routing Time Step ........ 1.00 sec
  Variable Time Step ....... YES
  Maximum Trials ........... 8
  Number of Threads ........ 1
  Head Tolerance ........... 0.001500 m
  
  
  **************************        Volume         Depth
  Runoff Quantity Continuity     hectare-m            mm
  **************************     ---------       -------
  Total Precipitation ......         0.027         2.690
  Evaporation Loss .........         0.010         0.952
  Infiltration Loss ........         0.014         1.397
  Surface Runoff ...........         0.003         0.343
  Final Storage ............         0.000         0.000
  Continuity Error (%) .....        -0.101
  
  
  **************************        Volume        Volume
  Flow Routing Continuity        hectare-m      10^6 ltr
  **************************     ---------     ---------
  Dry Weather Inflow .......         0.000         0.000
  Wet Weather Inflow .......         0.003         0.035
  Groundwater Inflow .......         0.000         0.000
  RDII Inflow ..............         0.000         0.000
  External Inflow ..........         0.000         0.000
  External Outflow .........         0.003         0.035
  Flooding Loss ............         0.000         0.000
  Evaporation Loss .........         0.000         0.000
  Exfiltration Loss ........         0.000         0.000
  Initial Stored Volume ....         0.000         0.000
  Final Stored Volume ......         0.000         0.000
  Continuity Error (%) .....         0.000
  
  
  *************************
  Highest Continuity Errors
  *************************
  Node R0043594 (-1.16%)
  
  
  ***************************
  Time-Step Critical Elements
  ***************************
  None
  
  
  ********************************
  Highest Flow Instability Indexes
  ********************************
  All links are stable.
  
  
  *********************************
  Most Frequent Nonconverging Nodes
  *********************************
  Convergence obtained at all time steps.
  
  
  *************************
  Routing Time Step Summary
  *************************
  Minimum Time Step           :     0.50 sec
  Average Time Step           :     1.00 sec
  Maximum Time Step           :     1.00 sec
  % of Time in Steady State   :     0.00
  Average Iterations per Step :     2.00
  % of Steps Not Converging   :     0.00
  Time Step Frequencies       :
      1.000 -  0.871 sec      :   100.00 %
      0.871 -  0.758 sec      :     0.00 %
      0.758 -  0.660 sec      :     0.00 %
      0.660 -  0.574 sec      :     0.00 %
      0.574 -  0.500 sec      :     0.00 %
  
  
  ***************************
  Subcatchment Runoff Summary
  ***************************
  
  ------------------------------------------------------------------------------------------------------------------------------
                            Total      Total      Total      Total     Imperv       Perv      Total       Total     Peak  Runoff
                           Precip      Runon       Evap      Infil     Runoff     Runoff     Runoff      Runoff   Runoff   Coeff
  Subcatchment                 mm         mm         mm         mm         mm         mm         mm    10^6 ltr      CMS
  ------------------------------------------------------------------------------------------------------------------------------
  EZG_368                    2.69       0.00       0.95       1.41       0.40       0.00       0.34        0.00     0.00   0.127
  EZG_392                    2.69       0.00       0.94       1.41       0.40       0.00       0.34        0.00     0.00   0.128
  EZG_352                    2.69       0.00       0.95       1.40       0.40       0.00       0.34        0.00     0.00   0.125
  EZG_372                    2.69       0.00       0.93       1.41       0.42       0.00       0.35        0.00     0.00   0.131
  EZG_416                    2.69       0.00       0.94       1.41       0.41       0.00       0.35        0.00     0.00   0.128
  EZG_388                    2.69       0.00       0.95       1.40       0.40       0.00       0.34        0.00     0.00   0.126
  EZG_394                    2.69       0.00       0.94       1.41       0.41       0.00       0.35        0.00     0.00   0.128
  EZG_400                    2.69       0.00       0.94       1.41       0.41       0.00       0.35        0.00     0.00   0.129
  EZG_390                    2.69       0.00       0.94       1.41       0.40       0.00       0.34        0.00     0.00   0.128
  EZG_350                    2.69       0.00       0.95       1.40       0.40       0.00       0.34        0.00     0.00   0.126
  EZG_370                    2.69       0.00       0.94       1.41       0.40       0.00       0.34        0.00     0.00   0.127
  EZG_398                    2.69       0.00       0.93       1.41       0.42       0.00       0.36        0.00     0.00   0.133
  EZG_382                    2.69       0.00       0.93       1.41       0.42       0.00       0.36        0.00     0.00   0.133
  EZG_374                    2.69       0.00       1.14       1.15       0.48       0.00       0.40        0.00     0.00   0.150
  EZG_412                    2.69       0.00       0.92       1.41       0.43       0.00       0.36        0.00     0.00   0.136
  EZG_344                    2.69       0.00       0.94       1.41       0.41       0.00       0.35        0.00     0.00   0.129
  EZG_376                    2.69       0.00       0.94       1.41       0.41       0.00       0.35        0.00     0.00   0.130
  EZG_356                    2.69       0.00       0.95       1.40       0.39       0.00       0.34        0.00     0.00   0.125
  EZG_386                    2.69       0.00       0.96       1.40       0.39       0.00       0.33        0.00     0.00   0.123
  EZG_380                    2.69       0.00       0.95       1.41       0.40       0.00       0.34        0.00     0.00   0.127
  EZG_378                    2.69       0.00       0.94       1.41       0.40       0.00       0.34        0.00     0.00   0.128
  EZG_414                    2.69       0.00       0.93       1.41       0.42       0.00       0.36        0.00     0.00   0.133
  EZG_402                    2.69       0.00       0.94       1.41       0.40       0.00       0.34        0.00     0.00   0.128
  EZG_358                    2.69       0.00       0.95       1.40       0.39       0.00       0.34        0.00     0.00   0.125
  EZG_364                    2.69       0.00       0.95       1.40       0.39       0.00       0.34        0.00     0.00   0.125
  EZG_410                    2.69       0.00       0.94       1.41       0.41       0.00       0.35        0.00     0.00   0.130
  EZG_366                    2.69       0.00       0.94       1.41       0.41       0.00       0.35        0.00     0.00   0.129
  EZG_18259                  2.69       0.00       0.94       1.41       0.41       0.00       0.35        0.00     0.00   0.129
  EZG_18258                  2.69       0.00       0.93       1.41       0.42       0.00       0.36        0.00     0.00   0.134
  EZG_346                    2.69       0.00       0.93       1.43       0.40       0.00       0.34        0.00     0.00   0.125
  EZG_348                    2.69       0.00       0.92       1.43       0.40       0.00       0.34        0.00     0.00   0.127
  
  
  ******************
  Node Depth Summary
  ******************
  
  ---------------------------------------------------------------------------------
                                 Average  Maximum  Maximum  Time of Max    Reported
                                   Depth    Depth      HGL   Occurrence   Max Depth
  Node                 Type       Meters   Meters   Meters  days hr:min      Meters
  ---------------------------------------------------------------------------------
  R0019466             JUNCTION     0.00     0.05    69.50     0  02:22        0.05
  R0019468             JUNCTION     0.00     0.05    69.36     0  02:24        0.05
  R0019831             JUNCTION     0.00     0.03    69.20     0  02:21        0.03
  R0019825             JUNCTION     0.00     0.05    68.89     0  02:22        0.05
  R0019843             JUNCTION     0.00     0.06    67.69     0  02:31        0.06
  R0019368             JUNCTION     0.00     0.09    66.88     0  02:31        0.09
  R0019369             JUNCTION     0.00     0.07    66.66     0  02:32        0.07
  R0019370             JUNCTION     0.00     0.06    65.96     0  02:32        0.06
  R0019345             JUNCTION     0.00     0.05    69.95     0  02:25        0.05
  R0019346             JUNCTION     0.00     0.04    69.84     0  02:25        0.04
  R0043600             JUNCTION     0.00     0.05    69.72     0  02:27        0.05
  R0019203             JUNCTION     0.00     0.06    69.60     0  02:27        0.06
  R0043594             JUNCTION     0.00     0.05    69.78     0  02:22        0.05
  R0021458             JUNCTION     0.00     0.06    69.71     0  02:24        0.06
  R0019202             JUNCTION     0.00     0.05    69.63     0  02:27        0.05
  R0019373             JUNCTION     0.00     0.03    69.70     0  02:21        0.03
  R0019254             JUNCTION     0.00     0.05    70.09     0  02:22        0.05
  R0019716             JUNCTION     0.00     0.06    69.07     0  02:30        0.06
  R0019946             JUNCTION     0.00     0.11    68.73     0  02:31        0.11
  R0013935             JUNCTION     0.00     0.03    68.86     0  02:20        0.03
  R0019939             JUNCTION     0.00     0.05    68.62     0  02:22        0.04
  R0019944             JUNCTION     0.00     0.05    68.33     0  02:31        0.05
  R0043703             JUNCTION     0.00     0.06    68.66     0  02:31        0.06
  R0019945             JUNCTION     0.00     0.07    68.47     0  02:31        0.06
  R0039621             JUNCTION     0.00     0.00    69.57     0  00:00        0.00
  R0019838             JUNCTION     0.00     0.04    69.50     0  02:23        0.04
  R0039606             JUNCTION     0.00     0.05    69.64     0  02:27        0.05
  R0019204             JUNCTION     0.00     0.00    69.91     0  00:00        0.00
  R0019205             JUNCTION     0.00     0.00    69.62     0  00:00        0.00
  R0019849             JUNCTION     0.00     0.05    68.57     0  02:23        0.05
  R0019371             JUNCTION     0.00     0.00    70.41     0  00:00        0.00
  R0019718             JUNCTION     0.00     0.09    69.51     0  02:30        0.09
  R0021442             JUNCTION     0.00     0.06    70.11     0  02:23        0.06
  R0019247             JUNCTION     0.00     0.06    69.94     0  02:25        0.06
  R0019719             JUNCTION     0.00     0.05    69.73     0  02:26        0.05
  R0019767             JUNCTION     0.00     0.06    64.79     0  02:33        0.06
  R0019768             JUNCTION     0.00     0.05    63.82     0  02:33        0.05
  R0021453             JUNCTION     0.00     0.02    69.97     0  02:21        0.02
  R0019839             JUNCTION     0.00     0.04    69.43     0  02:23        0.04
  R0019717             JUNCTION     0.00     0.06    69.40     0  02:29        0.06
  R0019252             JUNCTION     0.00     0.04    70.23     0  02:21        0.04
  R0019721             JUNCTION     0.00     0.04    69.91     0  02:23        0.04
  R0019942             JUNCTION     0.00     0.03    68.68     0  02:23        0.03
  R0019206             JUNCTION     0.00     0.00    69.07     0  00:00        0.00
  R0019840             JUNCTION     0.00     0.04    69.01     0  02:24        0.04
  R0043702             JUNCTION     0.00     0.05    68.75     0  02:25        0.05
  R0019723             JUNCTION     0.00     0.03    70.11     0  02:21        0.03
  R0019724             JUNCTION     0.00     0.02    70.18     0  02:20        0.02
  R0021433             JUNCTION     0.00     0.04    70.43     0  02:21        0.04
  R0021435             JUNCTION     0.00     0.04    70.22     0  02:23        0.04
  R0019769             OUTFALL      0.00     0.05    63.43     0  02:33        0.05
  
  
  *******************
  Node Inflow Summary
  *******************
  
  -------------------------------------------------------------------------------------------------
                                  Maximum  Maximum                  Lateral       Total        Flow
                                  Lateral    Total  Time of Max      Inflow      Inflow     Balance
                                   Inflow   Inflow   Occurrence      Volume      Volume       Error
  Node                 Type           CMS      CMS  days hr:min    10^6 ltr    10^6 ltr     Percent
  -------------------------------------------------------------------------------------------------
  R0019466             JUNCTION     0.002    0.004     0  02:21     0.00141     0.00264      -0.199
  R0019468             JUNCTION     0.002    0.004     0  02:22    0.000832     0.00348       0.273
  R0019831             JUNCTION     0.002    0.002     0  02:20     0.00111     0.00111      -0.781
  R0019825             JUNCTION     0.002    0.004     0  02:20     0.00112     0.00224      -0.061
  R0019843             JUNCTION     0.000    0.023     0  02:30           0      0.0347      -0.086
  R0019368             JUNCTION     0.000    0.023     0  02:31           0      0.0348       0.009
  R0019369             JUNCTION     0.000    0.023     0  02:31           0      0.0348       0.026
  R0019370             JUNCTION     0.000    0.023     0  02:32           0      0.0348       0.004
  R0019345             JUNCTION     0.000    0.003     0  02:23           0      0.0022       0.987
  R0019346             JUNCTION     0.001    0.004     0  02:24    0.000146     0.00369       0.219
  R0043600             JUNCTION     0.000    0.004     0  02:25           0     0.00425       0.866
  R0019203             JUNCTION     0.001    0.009     0  02:27    0.000316     0.00941      -0.185
  R0043594             JUNCTION     0.003    0.004     0  02:21     0.00199     0.00284      -1.144
  R0021458             JUNCTION     0.003    0.005     0  02:22     0.00156     0.00443      -0.092
  R0019202             JUNCTION     0.001    0.005     0  02:26    0.000478     0.00489      -0.117
  R0019373             JUNCTION     0.002    0.002     0  02:20     0.00123     0.00123      -0.368
  R0019254             JUNCTION     0.002    0.003     0  02:21     0.00101     0.00219      -0.567
  R0019716             JUNCTION     0.003    0.015     0  02:29     0.00155      0.0194      -0.263
  R0019946             JUNCTION     0.000    0.014     0  02:30           0      0.0194       0.404
  R0013935             JUNCTION     0.002    0.002     0  02:20    0.000959    0.000959      -0.840
  R0019939             JUNCTION     0.001    0.002     0  02:20    0.000353     0.00132      -0.145
  R0019944             JUNCTION     0.002    0.017     0  02:31    0.000893      0.0249      -0.017
  R0043703             JUNCTION     0.002    0.015     0  02:31     0.00109      0.0204      -0.128
  R0019945             JUNCTION     0.000    0.017     0  02:31           0       0.024       0.052
  R0039621             JUNCTION     0.000    0.000     0  00:00           0           0       0.000 ltr
  R0019838             JUNCTION     0.003    0.003     0  02:20     0.00215     0.00215      -0.003
  R0039606             JUNCTION     0.000    0.004     0  02:25           0     0.00445       0.845
  R0019204             JUNCTION     0.000    0.000     0  00:00           0           0       0.000 ltr
  R0019205             JUNCTION     0.000    0.000     0  00:00           0           0       0.000 ltr
  R0019849             JUNCTION     0.000    0.005     0  02:23           0     0.00355       0.172
  R0019371             JUNCTION     0.000    0.000     0  00:00           0           0       0.000 ltr
  R0019718             JUNCTION     0.002    0.010     0  02:27     0.00133      0.0108       0.203
  R0021442             JUNCTION     0.002    0.004     0  02:22     0.00153     0.00352      -0.199
  R0019247             JUNCTION     0.002    0.005     0  02:23    0.000697     0.00422      -0.638
  R0019719             JUNCTION     0.002    0.005     0  02:25    0.000732     0.00442      -0.014
  R0019767             JUNCTION     0.000    0.023     0  02:32           0      0.0348       0.016
  R0019768             JUNCTION     0.000    0.023     0  02:33           0      0.0348       0.037
  R0021453             JUNCTION     0.002    0.002     0  02:20    0.000877    0.000877       2.940
  R0019839             JUNCTION     0.003    0.004     0  02:22     0.00212     0.00427      -0.286
  R0019717             JUNCTION     0.003    0.014     0  02:29     0.00265      0.0178      -0.022
  R0019252             JUNCTION     0.002    0.002     0  02:20     0.00118     0.00118      -0.756
  R0019721             JUNCTION     0.001    0.002     0  02:21    0.000311     0.00137       0.263
  R0019942             JUNCTION     0.000    0.003     0  02:22           0     0.00224       0.404
  R0019206             JUNCTION     0.000    0.000     0  00:00           0           0       0.000 ltr
  R0019840             JUNCTION     0.000    0.008     0  02:24           0     0.00775       0.160
  R0043702             JUNCTION     0.003    0.010     0  02:24     0.00212     0.00986      -0.015
  R0019723             JUNCTION     0.002    0.002     0  02:20    0.000825     0.00105      -0.885
  R0019724             JUNCTION     0.001    0.001     0  02:20    0.000221    0.000221      -0.714
  R0021433             JUNCTION     0.002    0.002     0  02:20     0.00122     0.00122      -0.788
  R0021435             JUNCTION     0.002    0.003     0  02:21     0.00076     0.00199       0.391
  R0019769             OUTFALL      0.000    0.023     0  02:33           0      0.0347       0.000
  
  
  **********************
  Node Surcharge Summary
  **********************
  
  No nodes were surcharged.
  
  
  *********************
  Node Flooding Summary
  *********************
  
  No nodes were flooded.
  
  
  ***********************
  Outfall Loading Summary
  ***********************
  
  -----------------------------------------------------------
                         Flow       Avg       Max       Total
                         Freq      Flow      Flow      Volume
  Outfall Node           Pcnt       CMS       CMS    10^6 ltr
  -----------------------------------------------------------
  R0019769               1.51     0.004     0.023       0.035
  -----------------------------------------------------------
  System                 1.51     0.004     0.023       0.035
  
  
  ********************
  Link Flow Summary
  ********************
  
  -----------------------------------------------------------------------------
                                 Maximum  Time of Max   Maximum    Max/    Max/
                                  |Flow|   Occurrence   |Veloc|    Full    Full
  Link                 Type          CMS  days hr:min     m/sec    Flow   Depth
  -----------------------------------------------------------------------------
  H0014431             CONDUIT     0.003     0  02:23      0.44    0.06    0.17
  H0014433             CONDUIT     0.002     0  02:21      0.41    0.02    0.13
  H0014352             CONDUIT     0.023     0  02:31      0.90    0.01    0.08
  H0014373             CONDUIT     0.023     0  02:32      1.19    0.01    0.07
  H0017981             CONDUIT     0.002     0  02:25      0.36    0.07    0.15
  H0017755             CONDUIT     0.004     0  02:27      0.50    0.03    0.12
  H0017791             CONDUIT     0.003     0  02:22      0.28    0.01    0.06
  H0017357             CONDUIT     0.000     0  00:00      0.00    0.00    0.05
  H0018216             CONDUIT     0.003     0  02:23      0.45    0.05    0.16
  H0016792             CONDUIT     0.014     0  02:30      0.66    0.01    0.09
  H0019507             CONDUIT     0.002     0  02:20      0.39    0.02    0.12
  H0019998             CONDUIT     0.017     0  02:31      1.00    0.01    0.06
  H0019576             CONDUIT     0.015     0  02:31      0.73    0.01    0.07
  H0020087             CONDUIT     0.000     0  00:00      0.00    0.00    0.04
  H0020211             CONDUIT     0.014     0  02:31      0.45    0.04    0.10
  H0018982             CONDUIT     0.004     0  02:25      0.30    0.01    0.06
  H0018753             CONDUIT     0.002     0  02:21      0.31    0.02    0.14
  H0018845             CONDUIT     0.000     0  00:00      0.00    0.00    0.00
  H0018863             CONDUIT     0.002     0  02:22      0.36    0.05    0.15
  H0019156             CONDUIT     0.000     0  00:00      0.00    0.00    0.00
  H0018929             CONDUIT     0.009     0  02:27      0.41    0.01    0.08
  H0018440             CONDUIT     0.004     0  02:24      0.47    0.07    0.18
  H0018456             CONDUIT     0.004     0  02:25      0.56    0.03    0.11
  H0018968             CONDUIT     0.023     0  02:33      1.36    0.01    0.06
  H0022036             CONDUIT     0.001     0  02:21      0.43    0.00    0.02
  H0021806             CONDUIT     0.004     0  02:25      0.48    0.04    0.13
  H0022111             CONDUIT     0.002     0  02:23      0.26    0.02    0.08
  H0021440             CONDUIT     0.014     0  02:29      0.77    0.01    0.07
  H0021704             CONDUIT     0.009     0  02:30      0.39    0.02    0.08
  H0020521             CONDUIT     0.002     0  02:21      0.32    0.03    0.14
  H0020755             CONDUIT     0.002     0  02:23      0.29    0.02    0.10
  H0020530             CONDUIT     0.023     0  02:31      0.85    0.02    0.09
  H0020618             CONDUIT     0.017     0  02:31      0.93    0.01    0.07
  H0021163             CONDUIT     0.003     0  02:22      0.53    0.05    0.13
  H0020497             CONDUIT     0.000     0  00:00      0.00    0.00    0.10
  H0024325             CONDUIT     0.004     0  02:23      0.63    0.01    0.08
  H0023585             CONDUIT     0.010     0  02:25      0.91    0.02    0.10
  H0024098             CONDUIT     0.005     0  02:23      0.67    0.05    0.16
  H0024235             CONDUIT     0.005     0  02:26      0.51    0.02    0.09
  H0024282             CONDUIT     0.000     0  00:00      0.00    0.00    0.00
  H0024308             CONDUIT     0.023     0  02:33      1.52    0.01    0.06
  H0024498             CONDUIT     0.004     0  02:24      0.52    0.06    0.16
  H0026990             CONDUIT     0.002     0  02:21      0.37    0.01    0.09
  H0041650             CONDUIT     0.005     0  02:27      0.32    0.01    0.06
  H0041011             CONDUIT     0.003     0  02:23      0.48    0.03    0.14
  H0045103             CONDUIT     0.004     0  02:27      0.33    0.01    0.05
  H0045104             CONDUIT     0.023     0  02:32      1.27    0.01    0.07
  H0045105             CONDUIT     0.001     0  02:20      0.23    0.01    0.09
  H0045106             CONDUIT     0.008     0  02:24      0.95    0.01    0.09
  H0045107             CONDUIT     0.002     0  02:21      0.39    0.03    0.13
  H0045108             CONDUIT     0.003     0  02:23      0.34    0.05    0.16
  
  
  ***************************
  Flow Classification Summary
  ***************************
  
  -------------------------------------------------------------------------------------
                      Adjusted    ---------- Fraction of Time in Flow Class ---------- 
                       /Actual         Up    Down  Sub   Sup   Up    Down  Norm  Inlet 
  Conduit               Length    Dry  Dry   Dry   Crit  Crit  Crit  Crit  Ltd   Ctrl  
  -------------------------------------------------------------------------------------
  H0014431                1.00   0.01  0.97  0.00  0.02  0.00  0.00  0.00  0.99  0.00
  H0014433                1.00   0.01  0.00  0.00  0.99  0.00  0.00  0.00  0.99  0.00
  H0014352                1.00   0.01  0.00  0.00  0.98  0.01  0.00  0.00  0.99  0.00
  H0014373                1.00   0.01  0.00  0.00  0.97  0.01  0.00  0.00  0.97  0.00
  H0017981                1.00   0.01  0.00  0.00  0.00  0.00  0.00  0.99  0.00  0.00
  H0017755                1.00   0.01  0.00  0.00  0.00  0.00  0.00  0.99  0.00  0.00
  H0017791                1.00   0.01  0.00  0.00  0.99  0.00  0.00  0.00  0.99  0.00
  H0017357                1.00   0.01  0.99  0.00  0.00  0.00  0.00  0.00  0.00  0.00
  H0018216                1.00   0.01  0.97  0.00  0.02  0.00  0.00  0.00  0.99  0.00
  H0016792                1.00   0.01  0.97  0.00  0.02  0.00  0.00  0.00  0.99  0.00
  H0019507                1.00   0.01  0.00  0.00  0.99  0.00  0.00  0.00  0.99  0.00
  H0019998                1.00   0.01  0.00  0.00  0.97  0.01  0.00  0.00  0.02  0.00
  H0019576                1.00   0.01  0.00  0.00  0.98  0.00  0.00  0.00  0.02  0.00
  H0020087                1.00   0.01  0.99  0.00  0.00  0.00  0.00  0.00  0.00  0.00
  H0020211                1.00   0.01  0.00  0.00  0.99  0.00  0.00  0.00  0.97  0.00
  H0018982                1.00   0.01  0.00  0.00  0.99  0.00  0.00  0.00  0.98  0.00
  H0018753                1.00   0.01  0.00  0.00  0.99  0.00  0.00  0.00  0.99  0.00
  H0018845                1.00   1.00  0.00  0.00  0.00  0.00  0.00  0.00  0.00  0.00
  H0018863                1.00   0.01  0.00  0.00  0.99  0.00  0.00  0.00  0.99  0.00
  H0019156                1.00   1.00  0.00  0.00  0.00  0.00  0.00  0.00  0.00  0.00
  H0018929                1.00   0.01  0.97  0.00  0.02  0.00  0.00  0.00  0.99  0.00
  H0018440                1.00   0.01  0.00  0.00  0.99  0.00  0.00  0.00  0.99  0.00
  H0018456                1.00   0.01  0.00  0.00  0.99  0.00  0.00  0.00  0.99  0.00
  H0018968                1.00   0.01  0.00  0.00  0.97  0.01  0.00  0.00  0.97  0.00
  H0022036                1.00   0.01  0.00  0.00  0.00  0.00  0.00  0.99  0.00  0.00
  H0021806                1.00   0.01  0.97  0.00  0.02  0.00  0.00  0.00  0.99  0.00
  H0022111                1.00   0.01  0.00  0.00  0.99  0.00  0.00  0.00  0.00  0.00
  H0021440                1.00   0.01  0.00  0.00  0.98  0.01  0.00  0.00  0.00  0.00
  H0021704                1.00   0.01  0.00  0.00  0.00  0.00  0.00  0.99  0.00  0.00
  H0020521                1.00   0.01  0.00  0.00  0.99  0.00  0.00  0.00  0.99  0.00
  H0020755                1.00   0.01  0.97  0.00  0.01  0.00  0.00  0.00  0.99  0.00
  H0020530                1.00   0.01  0.00  0.00  0.98  0.00  0.00  0.00  0.00  0.00
  H0020618                1.00   0.01  0.00  0.00  0.98  0.01  0.00  0.00  0.97  0.00
  H0021163                1.00   0.01  0.00  0.00  0.99  0.00  0.00  0.00  0.98  0.00
  H0020497                1.20   0.01  0.99  0.00  0.00  0.00  0.00  0.00  0.00  0.00
  H0024325                1.00   0.01  0.00  0.00  0.98  0.01  0.00  0.00  0.98  0.00
  H0023585                1.00   0.01  0.00  0.00  0.00  0.00  0.00  0.99  0.00  0.00
  H0024098                1.00   0.01  0.97  0.00  0.01  0.00  0.00  0.00  0.99  0.00
  H0024235                1.00   0.01  0.00  0.00  0.00  0.00  0.00  0.99  0.00  0.00
  H0024282                1.00   1.00  0.00  0.00  0.00  0.00  0.00  0.00  0.00  0.00
  H0024308                1.00   0.01  0.00  0.00  0.97  0.02  0.00  0.00  0.00  0.00
  H0024498                1.00   0.01  0.00  0.00  0.00  0.00  0.00  0.99  0.00  0.00
  H0026990                1.00   0.01  0.00  0.00  0.99  0.00  0.00  0.00  0.99  0.00
  H0041650                1.00   0.98  0.00  0.00  0.01  0.00  0.00  0.00  0.99  0.00
  H0041011                1.00   0.01  0.00  0.00  0.99  0.00  0.00  0.00  0.99  0.00
  H0045103                1.00   0.01  0.00  0.00  0.99  0.00  0.00  0.00  0.98  0.00
  H0045104                1.00   0.01  0.00  0.00  0.97  0.01  0.00  0.00  0.02  0.00
  H0045105                1.00   0.01  0.00  0.00  0.99  0.00  0.00  0.00  0.99  0.00
  H0045106                1.00   0.01  0.00  0.00  0.98  0.01  0.00  0.00  0.99  0.00
  H0045107                1.00   0.01  0.00  0.00  0.99  0.00  0.00  0.00  0.99  0.00
  H0045108                1.00   0.01  0.00  0.00  0.99  0.00  0.00  0.00  0.99  0.00
  
  
  *************************
  Conduit Surcharge Summary
  *************************
  
  No conduits were surcharged.
  

  Analysis begun on:  Thu Mar 21 16:40:39 2024
  Analysis ended on:  Thu Mar 21 16:40:49 2024
  Total elapsed time: 00:00:10