
  EPA STORM WATER MANAGEMENT MODEL - VERSION 5.2 (Build 5.2.4)
  PYSWMM TOOLKIT API - VERSION v1.0 (2023-11-27)
  ------------------------------------------------------------

  Gievenbeck_2014-07-20 22 25 00_hN33 83 
  
  ****************
  Analysis Options
  ****************
  Flow Units ............... CMS
  Process Models:
    Rainfall/Runoff ........ YES
    RDII ................... NO
    Snowmelt ............... NO
    Groundwater ............ NO
    Flow Routing ........... YES
    Ponding Allowed ........ NO
    Water Quality .......... NO
  Infiltration Method ...... HORTON
  Flow Routing Method ...... DYNWAVE
  Surcharge Method ......... SLOT
  Starting Date ............ 01/01/2024 00:00:00
  Ending Date .............. 01/08/2024 04:00:00
  Antecedent Dry Days ...... 14.0
  Report Time Step ......... 00:01:00
  Wet Time Step ............ 00:01:00
  Dry Time Step ............ 00:01:00
  Routing Time Step ........ 1.00 sec
  Variable Time Step ....... YES
  Maximum Trials ........... 8
  Number of Threads ........ 1
  Head Tolerance ........... 0.001500 m
  
  
  **************************        Volume         Depth
  Runoff Quantity Continuity     hectare-m            mm
  **************************     ---------       -------
  Total Precipitation ......         0.342        33.830
  Evaporation Loss .........         0.010         0.987
  Infiltration Loss ........         0.176        17.419
  Surface Runoff ...........         0.156        15.438
  Final Storage ............         0.000         0.000
  Continuity Error (%) .....        -0.044
  
  
  **************************        Volume        Volume
  Flow Routing Continuity        hectare-m      10^6 ltr
  **************************     ---------     ---------
  Dry Weather Inflow .......         0.000         0.000
  Wet Weather Inflow .......         0.156         1.563
  Groundwater Inflow .......         0.000         0.000
  RDII Inflow ..............         0.000         0.000
  External Inflow ..........         0.000         0.000
  External Outflow .........         0.156         1.563
  Flooding Loss ............         0.000         0.000
  Evaporation Loss .........         0.000         0.000
  Exfiltration Loss ........         0.000         0.000
  Initial Stored Volume ....         0.000         0.000
  Final Stored Volume ......         0.000         0.000
  Continuity Error (%) .....        -0.019
  
  
  ***************************
  Time-Step Critical Elements
  ***************************
  None
  
  
  ********************************
  Highest Flow Instability Indexes
  ********************************
  All links are stable.
  
  
  *********************************
  Most Frequent Nonconverging Nodes
  *********************************
  Convergence obtained at all time steps.
  
  
  *************************
  Routing Time Step Summary
  *************************
  Minimum Time Step           :     0.50 sec
  Average Time Step           :     1.00 sec
  Maximum Time Step           :     1.00 sec
  % of Time in Steady State   :     0.00
  Average Iterations per Step :     2.00
  % of Steps Not Converging   :     0.00
  Time Step Frequencies       :
      1.000 -  0.871 sec      :   100.00 %
      0.871 -  0.758 sec      :     0.00 %
      0.758 -  0.660 sec      :     0.00 %
      0.660 -  0.574 sec      :     0.00 %
      0.574 -  0.500 sec      :     0.00 %
  
  
  ***************************
  Subcatchment Runoff Summary
  ***************************
  
  ------------------------------------------------------------------------------------------------------------------------------
                            Total      Total      Total      Total     Imperv       Perv      Total       Total     Peak  Runoff
                           Precip      Runon       Evap      Infil     Runoff     Runoff     Runoff      Runoff   Runoff   Coeff
  Subcatchment                 mm         mm         mm         mm         mm         mm         mm    10^6 ltr      CMS
  ------------------------------------------------------------------------------------------------------------------------------
  EZG_368                   33.83       0.00       0.98      17.54      15.96       1.76      15.32        0.06     0.04   0.453
  EZG_392                   33.83       0.00       0.98      17.44      15.96       1.86      15.42        0.05     0.03   0.456
  EZG_352                   33.83       0.00       0.99      17.69      15.95       1.61      15.17        0.09     0.06   0.448
  EZG_372                   33.83       0.00       0.96      17.10      15.98       2.20      15.78        0.02     0.02   0.467
  EZG_416                   33.83       0.00       0.98      17.40      15.96       1.90      15.47        0.05     0.03   0.457
  EZG_388                   33.83       0.00       0.98      17.58      15.96       1.71      15.28        0.07     0.04   0.452
  EZG_394                   33.83       0.00       0.97      17.38      15.97       1.92      15.49        0.04     0.03   0.458
  EZG_400                   33.83       0.00       0.97      17.35      15.97       1.95      15.52        0.04     0.03   0.459
  EZG_390                   33.83       0.00       0.98      17.43      15.96       1.87      15.43        0.05     0.03   0.456
  EZG_350                   33.83       0.00       0.98      17.59      15.96       1.71      15.27        0.07     0.04   0.452
  EZG_370                   33.83       0.00       0.98      17.49      15.96       1.81      15.38        0.06     0.04   0.455
  EZG_398                   33.83       0.00       0.96      16.98      15.98       2.32      15.91        0.02     0.01   0.470
  EZG_382                   33.83       0.00       0.96      16.94      15.98       2.37      15.95        0.01     0.01   0.471
  EZG_374                   33.83       0.00       1.18      14.46      19.14       1.93      18.21        0.07     0.04   0.538
  EZG_412                   33.83       0.00       0.95      16.67      15.99       2.64      16.23        0.01     0.01   0.480
  EZG_344                   33.83       0.00       0.97      17.34      15.97       1.96      15.53        0.04     0.03   0.459
  EZG_376                   33.83       0.00       0.97      17.25      15.97       2.05      15.63        0.03     0.02   0.462
  EZG_356                   33.83       0.00       0.99      17.72      15.95       1.57      15.13        0.10     0.06   0.447
  EZG_386                   33.83       0.00       0.99      17.81      15.95       1.48      15.04        0.12     0.07   0.444
  EZG_380                   33.83       0.00       0.98      17.52      15.96       1.78      15.35        0.06     0.04   0.454
  EZG_378                   33.83       0.00       0.98      17.47      15.96       1.83      15.40        0.05     0.03   0.455
  EZG_414                   33.83       0.00       0.96      16.94      15.98       2.37      15.96        0.01     0.01   0.472
  EZG_402                   33.83       0.00       0.98      17.45      15.96       1.85      15.42        0.05     0.03   0.456
  EZG_358                   33.83       0.00       0.99      17.72      15.95       1.58      15.14        0.10     0.06   0.447
  EZG_364                   33.83       0.00       0.99      17.72      15.95       1.58      15.14        0.10     0.06   0.447
  EZG_410                   33.83       0.00       0.97      17.27      15.97       2.03      15.61        0.03     0.02   0.461
  EZG_366                   33.83       0.00       0.97      17.32      15.97       1.98      15.55        0.04     0.03   0.460
  EZG_18259                 33.83       0.00       0.97      17.32      15.97       1.98      15.55        0.04     0.03   0.460
  EZG_18258                 33.83       0.00       0.96      16.81      15.99       2.50      16.09        0.01     0.01   0.475
  EZG_346                   33.83       0.00       0.96      17.80      15.64       1.79      15.09        0.05     0.04   0.446
  EZG_348                   33.83       0.00       0.95      17.60      15.65       2.00      15.30        0.03     0.02   0.452
  
  
  ******************
  Node Depth Summary
  ******************
  
  ---------------------------------------------------------------------------------
                                 Average  Maximum  Maximum  Time of Max    Reported
                                   Depth    Depth      HGL   Occurrence   Max Depth
  Node                 Type       Meters   Meters   Meters  days hr:min      Meters
  ---------------------------------------------------------------------------------
  R0019466             JUNCTION     0.00     0.42    69.87     0  11:30        0.41
  R0019468             JUNCTION     0.00     0.39    69.70     0  11:30        0.39
  R0019831             JUNCTION     0.00     0.13    69.30     0  11:30        0.13
  R0019825             JUNCTION     0.00     0.26    69.10     0  11:30        0.26
  R0019843             JUNCTION     0.00     0.37    68.00     0  11:31        0.37
  R0019368             JUNCTION     0.01     0.56    67.35     0  11:31        0.56
  R0019369             JUNCTION     0.00     0.40    66.99     0  11:31        0.40
  R0019370             JUNCTION     0.00     0.34    66.24     0  11:31        0.34
  R0019345             JUNCTION     0.00     0.25    70.15     0  11:30        0.25
  R0019346             JUNCTION     0.00     0.24    70.04     0  11:30        0.23
  R0043600             JUNCTION     0.00     0.27    69.94     0  11:30        0.27
  R0019203             JUNCTION     0.00     0.31    69.85     0  11:30        0.31
  R0043594             JUNCTION     0.00     0.22    69.95     0  11:30        0.21
  R0021458             JUNCTION     0.00     0.26    69.91     0  11:30        0.26
  R0019202             JUNCTION     0.00     0.28    69.86     0  11:31        0.28
  R0019373             JUNCTION     0.00     0.22    69.89     0  11:30        0.22
  R0019254             JUNCTION     0.00     0.27    70.31     0  11:30        0.27
  R0019716             JUNCTION     0.00     0.34    69.35     0  11:30        0.34
  R0019946             JUNCTION     0.01     0.49    69.11     0  11:30        0.49
  R0013935             JUNCTION     0.00     0.13    68.96     0  11:30        0.13
  R0019939             JUNCTION     0.00     0.38    68.95     0  11:30        0.37
  R0019944             JUNCTION     0.00     0.31    68.59     0  11:31        0.31
  R0043703             JUNCTION     0.00     0.37    68.97     0  11:31        0.37
  R0019945             JUNCTION     0.00     0.38    68.78     0  11:31        0.38
  R0039621             JUNCTION     0.00     0.11    69.68     0  11:30        0.11
  R0019838             JUNCTION     0.00     0.22    69.68     0  11:30        0.22
  R0039606             JUNCTION     0.00     0.27    69.86     0  11:31        0.27
  R0019204             JUNCTION     0.00     0.00    69.91     0  00:00        0.00
  R0019205             JUNCTION     0.00     0.00    69.62     0  00:00        0.00
  R0019849             JUNCTION     0.00     0.40    68.92     0  11:30        0.39
  R0019371             JUNCTION     0.00     0.00    70.41     0  00:00        0.00
  R0019718             JUNCTION     0.01     0.38    69.80     0  11:31        0.38
  R0021442             JUNCTION     0.00     0.64    70.69     0  11:30        0.63
  R0019247             JUNCTION     0.00     0.33    70.21     0  11:30        0.32
  R0019719             JUNCTION     0.00     0.25    69.93     0  11:30        0.25
  R0019767             JUNCTION     0.00     0.36    65.09     0  11:31        0.36
  R0019768             JUNCTION     0.00     0.31    64.08     0  11:31        0.31
  R0021453             JUNCTION     0.00     0.09    70.04     0  11:30        0.09
  R0019839             JUNCTION     0.00     0.20    69.59     0  11:30        0.20
  R0019717             JUNCTION     0.00     0.34    69.68     0  11:30        0.33
  R0019252             JUNCTION     0.00     0.18    70.37     0  11:30        0.18
  R0019721             JUNCTION     0.00     0.20    70.07     0  11:30        0.20
  R0019942             JUNCTION     0.00     0.31    68.96     0  11:30        0.30
  R0019206             JUNCTION     0.00     0.00    69.07     0  00:00        0.00
  R0019840             JUNCTION     0.00     0.18    69.15     0  11:30        0.18
  R0043702             JUNCTION     0.00     0.27    68.97     0  11:30        0.27
  R0019723             JUNCTION     0.00     0.13    70.21     0  11:30        0.13
  R0019724             JUNCTION     0.00     0.07    70.23     0  11:30        0.07
  R0021433             JUNCTION     0.00     0.50    70.89     0  11:30        0.48
  R0021435             JUNCTION     0.00     0.64    70.82     0  11:30        0.62
  R0019769             OUTFALL      0.00     0.31    63.69     0  11:31        0.31
  
  
  *******************
  Node Inflow Summary
  *******************
  
  -------------------------------------------------------------------------------------------------
                                  Maximum  Maximum                  Lateral       Total        Flow
                                  Lateral    Total  Time of Max      Inflow      Inflow     Balance
                                   Inflow   Inflow   Occurrence      Volume      Volume       Error
  Node                 Type           CMS      CMS  days hr:min    10^6 ltr    10^6 ltr     Percent
  -------------------------------------------------------------------------------------------------
  R0019466             JUNCTION     0.041    0.068     0  11:28      0.0633       0.118       0.031
  R0019468             JUNCTION     0.025    0.087     0  11:29      0.0372       0.155      -0.001
  R0019831             JUNCTION     0.033    0.033     0  11:30      0.0499      0.0499      -0.027
  R0019825             JUNCTION     0.033    0.065     0  11:30      0.0501         0.1       0.039
  R0019843             JUNCTION     0.000    0.872     0  11:30           0        1.56      -0.006
  R0019368             JUNCTION     0.000    0.871     0  11:31           0        1.56       0.008
  R0019369             JUNCTION     0.000    0.902     0  11:31           0        1.56      -0.005
  R0019370             JUNCTION     0.000    0.871     0  11:31           0        1.56       0.004
  R0019345             JUNCTION     0.000    0.060     0  11:30           0      0.0979       0.024
  R0019346             JUNCTION     0.005    0.104     0  11:30     0.00648       0.165       0.015
  R0043600             JUNCTION     0.000    0.114     0  11:30           0       0.189       0.038
  R0019203             JUNCTION     0.010    0.249     0  11:30      0.0141       0.424      -0.009
  R0043594             JUNCTION     0.055    0.081     0  11:30      0.0896       0.129      -0.065
  R0021458             JUNCTION     0.044    0.121     0  11:30      0.0701       0.199      -0.017
  R0019202             JUNCTION     0.015    0.129     0  11:30      0.0214       0.221      -0.022
  R0019373             JUNCTION     0.036    0.036     0  11:30      0.0552      0.0552      -0.082
  R0019254             JUNCTION     0.030    0.063     0  11:30      0.0451      0.0978      -0.010
  R0019716             JUNCTION     0.044    0.495     0  11:30      0.0696       0.872      -0.012
  R0019946             JUNCTION     0.000    0.495     0  11:30           0       0.872       0.006
  R0013935             JUNCTION     0.029    0.029     0  11:30       0.043       0.043      -0.005
  R0019939             JUNCTION     0.012    0.040     0  11:30      0.0157      0.0587      -0.016
  R0019944             JUNCTION     0.027    0.631     0  11:31        0.04        1.12       0.001
  R0043703             JUNCTION     0.032    0.522     0  11:31      0.0488        0.92       0.010
  R0019945             JUNCTION     0.000    0.613     0  11:31           0        1.08      -0.004
  R0039621             JUNCTION     0.000    0.001     0  11:19           0    0.000593       1.030
  R0019838             JUNCTION     0.059    0.059     0  11:30       0.097      0.0975      -0.008
  R0039606             JUNCTION     0.000    0.116     0  11:30           0       0.199       0.055
  R0019204             JUNCTION     0.000    0.000     0  00:00           0           0       0.000 ltr
  R0019205             JUNCTION     0.000    0.000     0  00:00           0           0       0.000 ltr
  R0019849             JUNCTION     0.000    0.095     0  11:30           0       0.159       0.003
  R0019371             JUNCTION     0.000    0.000     0  00:00           0           0       0.000 ltr
  R0019718             JUNCTION     0.039    0.278     0  11:30      0.0597       0.484      -0.122
  R0021442             JUNCTION     0.043    0.097     0  11:30       0.069       0.158       0.013
  R0019247             JUNCTION     0.021    0.116     0  11:30      0.0312       0.189      -0.032
  R0019719             JUNCTION     0.022    0.123     0  11:30      0.0328       0.198      -0.007
  R0019767             JUNCTION     0.000    0.870     0  11:31           0        1.56      -0.005
  R0019768             JUNCTION     0.000    0.871     0  11:31           0        1.56       0.009
  R0021453             JUNCTION     0.026    0.026     0  11:30      0.0393      0.0393       0.071
  R0019839             JUNCTION     0.059    0.115     0  11:30      0.0958       0.193      -0.006
  R0019717             JUNCTION     0.072    0.455     0  11:30        0.12       0.802       0.042
  R0019252             JUNCTION     0.034    0.034     0  11:30      0.0528      0.0528      -0.026
  R0019721             JUNCTION     0.010    0.042     0  11:30      0.0139      0.0607       0.011
  R0019942             JUNCTION     0.000    0.061     0  11:29           0         0.1      -0.024
  R0019206             JUNCTION     0.000    0.000     0  00:00           0           0       0.000 ltr
  R0019840             JUNCTION     0.000    0.198     0  11:30           0       0.348       0.005
  R0043702             JUNCTION     0.059    0.253     0  11:30      0.0959       0.444      -0.003
  R0019723             JUNCTION     0.025    0.032     0  11:30       0.037      0.0468      -0.051
  R0019724             JUNCTION     0.008    0.008     0  11:30     0.00985     0.00985      -0.073
  R0021433             JUNCTION     0.036    0.036     0  11:30      0.0549      0.0549      -0.126
  R0021435             JUNCTION     0.023    0.056     0  11:30       0.034       0.089       0.033
  R0019769             OUTFALL      0.000    0.872     0  11:31           0        1.56       0.000
  
  
  **********************
  Node Surcharge Summary
  **********************
  
  Surcharging occurs when water rises above the top of the highest conduit.
  ---------------------------------------------------------------------
                                               Max. Height   Min. Depth
                                   Hours       Above Crown    Below Rim
  Node                 Type      Surcharged         Meters       Meters
  ---------------------------------------------------------------------
  R0019466             JUNCTION        0.08          0.116        2.394
  R0019468             JUNCTION        0.07          0.095        2.335
  R0019939             JUNCTION        0.07          0.080        1.540
  R0019849             JUNCTION        0.09          0.096        1.834
  R0021442             JUNCTION        0.12          0.343        1.407
  R0019942             JUNCTION        0.01          0.008        1.642
  R0021433             JUNCTION        0.04          0.196        1.654
  R0021435             JUNCTION        0.08          0.342        1.468
  
  
  *********************
  Node Flooding Summary
  *********************
  
  No nodes were flooded.
  
  
  ***********************
  Outfall Loading Summary
  ***********************
  
  -----------------------------------------------------------
                         Flow       Avg       Max       Total
                         Freq      Flow      Flow      Volume
  Outfall Node           Pcnt       CMS       CMS    10^6 ltr
  -----------------------------------------------------------
  R0019769               6.26     0.040     0.872       1.563
  -----------------------------------------------------------
  System                 6.26     0.040     0.872       1.563
  
  
  ********************
  Link Flow Summary
  ********************
  
  -----------------------------------------------------------------------------
                                 Maximum  Time of Max   Maximum    Max/    Max/
                                  |Flow|   Occurrence   |Veloc|    Full    Full
  Link                 Type          CMS  days hr:min     m/sec    Flow   Depth
  -----------------------------------------------------------------------------
  H0014431             CONDUIT     0.063     0  11:28      0.89    1.16    1.00
  H0014433             CONDUIT     0.032     0  11:30      0.67    0.41    0.66
  H0014352             CONDUIT     0.871     0  11:31      2.62    0.36    0.52
  H0014373             CONDUIT     0.871     0  11:31      3.52    0.40    0.41
  H0017981             CONDUIT     0.060     0  11:30      1.07    1.70    0.74
  H0017755             CONDUIT     0.113     0  11:31      1.33    0.92    0.64
  H0017791             CONDUIT     0.077     0  11:30      0.57    0.11    0.27
  H0017357             CONDUIT     0.005     0  11:30      0.15    0.08    0.45
  H0018216             CONDUIT     0.060     0  11:30      0.92    1.10    0.87
  H0016792             CONDUIT     0.495     0  11:30      1.73    0.28    0.46
  H0019507             CONDUIT     0.028     0  11:29      0.56    0.39    0.85
  H0019998             CONDUIT     0.630     0  11:31      2.87    0.25    0.38
  H0019576             CONDUIT     0.524     0  11:31      2.06    0.35    0.42
  H0020087             CONDUIT     0.003     0  11:31      0.08    0.01    0.33
  H0020211             CONDUIT     0.500     0  11:31      1.68    1.25    0.48
  H0018982             CONDUIT     0.116     0  11:30      0.75    0.19    0.30
  H0018753             CONDUIT     0.035     0  11:31      0.57    0.49    1.00
  H0018845             CONDUIT     0.000     0  00:00      0.00    0.00    0.00
  H0018863             CONDUIT     0.037     0  11:30      0.52    0.87    1.00
  H0019156             CONDUIT     0.000     0  00:00      0.00    0.00    0.00
  H0018929             CONDUIT     0.250     0  11:31      1.12    0.22    0.38
  H0018440             CONDUIT     0.096     0  11:30      1.36    1.72    1.00
  H0018456             CONDUIT     0.104     0  11:30      1.30    0.63    0.61
  H0018968             CONDUIT     0.871     0  11:31      4.01    0.33    0.37
  H0022036             CONDUIT     0.026     0  11:30      0.46    0.02    0.15
  H0021806             CONDUIT     0.114     0  11:30      1.14    1.01    0.75
  H0022111             CONDUIT     0.057     0  11:30      0.72    0.40    0.42
  H0021440             CONDUIT     0.457     0  11:30      2.09    0.30    0.38
  H0021704             CONDUIT     0.277     0  11:31      1.25    0.53    0.38
  H0020521             CONDUIT     0.033     0  11:30      0.59    0.67    0.76
  H0020755             CONDUIT     0.040     0  11:30      0.57    0.44    0.54
  H0020530             CONDUIT     0.902     0  11:31      2.61    0.77    0.53
  H0020618             CONDUIT     0.613     0  11:31      2.72    0.38    0.38
  H0021163             CONDUIT     0.061     0  11:29      1.14    1.01    0.95
  H0020497             CONDUIT     0.000     0  00:00      0.00    0.00    0.62
  H0024325             CONDUIT     0.113     0  11:30      1.64    0.34    0.38
  H0023585             CONDUIT     0.252     0  11:30      2.30    0.58    0.55
  H0024098             CONDUIT     0.095     0  11:30      1.35    1.11    1.00
  H0024235             CONDUIT     0.122     0  11:30      1.30    0.50    0.49
  H0024282             CONDUIT     0.000     0  00:00      0.00    0.00    0.00
  H0024308             CONDUIT     0.872     0  11:31      4.49    0.26    0.34
  H0024498             CONDUIT     0.084     0  11:30      1.20    1.30    1.00
  H0026990             CONDUIT     0.032     0  11:30      0.65    0.24    0.41
  H0041650             CONDUIT     0.129     0  11:30      0.73    0.15    0.32
  H0041011             CONDUIT     0.059     0  11:30      0.96    0.58    1.00
  H0045103             CONDUIT     0.114     0  11:31      0.71    0.14    0.30
  H0045104             CONDUIT     0.870     0  11:31      3.75    0.31    0.39
  H0045105             CONDUIT     0.007     0  11:30      0.35    0.13    0.34
  H0045106             CONDUIT     0.198     0  11:30      2.28    0.27    0.46
  H0045107             CONDUIT     0.034     0  11:30      0.62    0.55    1.00
  H0045108             CONDUIT     0.056     0  11:30      0.79    1.00    1.00
  
  
  ***************************
  Flow Classification Summary
  ***************************
  
  -------------------------------------------------------------------------------------
                      Adjusted    ---------- Fraction of Time in Flow Class ---------- 
                       /Actual         Up    Down  Sub   Sup   Up    Down  Norm  Inlet 
  Conduit               Length    Dry  Dry   Dry   Crit  Crit  Crit  Crit  Ltd   Ctrl  
  -------------------------------------------------------------------------------------
  H0014431                1.00   0.02  0.00  0.00  0.98  0.00  0.00  0.00  0.98  0.00
  H0014433                1.00   0.02  0.00  0.00  0.98  0.00  0.00  0.00  0.98  0.00
  H0014352                1.00   0.02  0.00  0.00  0.93  0.05  0.00  0.00  0.98  0.00
  H0014373                1.00   0.02  0.00  0.00  0.92  0.06  0.00  0.00  0.91  0.00
  H0017981                1.00   0.02  0.00  0.00  0.00  0.00  0.00  0.98  0.00  0.00
  H0017755                1.00   0.02  0.00  0.00  0.00  0.00  0.00  0.98  0.00  0.00
  H0017791                1.00   0.02  0.00  0.00  0.98  0.00  0.00  0.00  0.98  0.00
  H0017357                1.00   0.02  0.98  0.00  0.00  0.00  0.00  0.00  0.93  0.00
  H0018216                1.00   0.02  0.92  0.00  0.06  0.00  0.00  0.00  0.98  0.00
  H0016792                1.00   0.02  0.91  0.00  0.07  0.00  0.00  0.00  0.98  0.00
  H0019507                1.00   0.02  0.00  0.00  0.98  0.00  0.00  0.00  0.98  0.00
  H0019998                1.00   0.02  0.00  0.00  0.92  0.06  0.00  0.00  0.07  0.00
  H0019576                1.00   0.02  0.00  0.00  0.93  0.05  0.00  0.00  0.06  0.00
  H0020087                1.00   0.02  0.97  0.00  0.01  0.00  0.00  0.00  0.93  0.00
  H0020211                1.00   0.02  0.00  0.00  0.98  0.00  0.00  0.00  0.91  0.00
  H0018982                1.00   0.02  0.00  0.00  0.98  0.00  0.00  0.00  0.92  0.00
  H0018753                1.00   0.02  0.00  0.00  0.98  0.00  0.00  0.00  0.98  0.00
  H0018845                1.00   1.00  0.00  0.00  0.00  0.00  0.00  0.00  0.00  0.00
  H0018863                1.00   0.02  0.00  0.00  0.98  0.00  0.00  0.00  0.98  0.00
  H0019156                1.00   1.00  0.00  0.00  0.00  0.00  0.00  0.00  0.00  0.00
  H0018929                1.00   0.02  0.92  0.00  0.06  0.00  0.00  0.00  0.98  0.00
  H0018440                1.00   0.02  0.00  0.00  0.98  0.00  0.00  0.00  0.98  0.00
  H0018456                1.00   0.02  0.00  0.00  0.98  0.00  0.00  0.00  0.98  0.00
  H0018968                1.00   0.02  0.00  0.00  0.92  0.06  0.00  0.00  0.92  0.00
  H0022036                1.00   0.02  0.00  0.00  0.01  0.02  0.00  0.95  0.00  0.00
  H0021806                1.00   0.02  0.92  0.00  0.06  0.00  0.00  0.00  0.94  0.00
  H0022111                1.00   0.02  0.00  0.00  0.98  0.00  0.00  0.00  0.00  0.00
  H0021440                1.00   0.02  0.00  0.00  0.93  0.05  0.00  0.00  0.01  0.00
  H0021704                1.00   0.02  0.00  0.00  0.00  0.00  0.00  0.98  0.00  0.00
  H0020521                1.00   0.02  0.00  0.00  0.98  0.00  0.00  0.00  0.98  0.00
  H0020755                1.00   0.02  0.92  0.00  0.06  0.00  0.00  0.00  0.98  0.00
  H0020530                1.00   0.02  0.00  0.00  0.93  0.05  0.00  0.00  0.00  0.00
  H0020618                1.00   0.02  0.00  0.00  0.92  0.06  0.00  0.00  0.92  0.00
  H0021163                1.00   0.02  0.00  0.00  0.98  0.00  0.00  0.00  0.92  0.00
  H0020497                1.20   0.02  0.98  0.00  0.00  0.00  0.00  0.00  0.00  0.00
  H0024325                1.00   0.02  0.00  0.00  0.93  0.05  0.00  0.00  0.92  0.00
  H0023585                1.00   0.02  0.00  0.00  0.00  0.00  0.00  0.98  0.00  0.00
  H0024098                1.00   0.02  0.92  0.00  0.06  0.00  0.00  0.00  0.98  0.00
  H0024235                1.00   0.02  0.00  0.00  0.00  0.00  0.00  0.98  0.00  0.00
  H0024282                1.00   1.00  0.00  0.00  0.00  0.00  0.00  0.00  0.00  0.00
  H0024308                1.00   0.02  0.00  0.00  0.91  0.07  0.00  0.00  0.03  0.00
  H0024498                1.00   0.02  0.00  0.00  0.00  0.00  0.00  0.98  0.00  0.00
  H0026990                1.00   0.02  0.00  0.00  0.98  0.00  0.00  0.00  0.98  0.00
  H0041650                1.00   0.94  0.00  0.00  0.06  0.00  0.00  0.00  0.98  0.00
  H0041011                1.00   0.02  0.00  0.00  0.98  0.00  0.00  0.00  0.98  0.00
  H0045103                1.00   0.02  0.00  0.00  0.98  0.00  0.00  0.00  0.93  0.00
  H0045104                1.00   0.02  0.00  0.00  0.92  0.06  0.00  0.00  0.06  0.00
  H0045105                1.00   0.02  0.00  0.00  0.98  0.00  0.00  0.00  0.98  0.00
  H0045106                1.00   0.02  0.00  0.00  0.93  0.05  0.00  0.00  0.98  0.00
  H0045107                1.00   0.02  0.00  0.00  0.98  0.00  0.00  0.00  0.98  0.00
  H0045108                1.00   0.02  0.00  0.00  0.98  0.00  0.00  0.00  0.98  0.00
  
  
  *************************
  Conduit Surcharge Summary
  *************************
  
  ----------------------------------------------------------------------------
                                                           Hours        Hours 
                         --------- Hours Full --------   Above Full   Capacity
  Conduit                Both Ends  Upstream  Dnstream   Normal Flow   Limited
  ----------------------------------------------------------------------------
  H0014431                    0.07      0.08      0.07      0.10         0.08
  H0017981                    0.01      0.01      0.01      0.15         0.01
  H0018216                    0.01      0.01      0.01      0.04         0.01
  H0019507                    0.01      0.01      0.07      0.01         0.01
  H0020211                    0.01      0.01      0.01      0.09         0.01
  H0018753                    0.01      0.01      0.08      0.01         0.01
  H0018863                    0.07      0.07      0.09      0.01         0.01
  H0018440                    0.04      0.12      0.04      0.18         0.09
  H0021806                    0.01      0.01      0.01      0.01         0.01
  H0021163                    0.01      0.01      0.01      0.01         0.01
  H0024098                    0.09      0.09      0.16      0.04         0.03
  H0024498                    0.01      0.07      0.01      0.12         0.01
  H0041011                    0.01      0.01      0.09      0.01         0.01
  H0045107                    0.04      0.04      0.08      0.01         0.01
  H0045108                    0.08      0.08      0.12      0.01         0.01
  

  Analysis begun on:  Thu Mar 21 16:37:21 2024
  Analysis ended on:  Thu Mar 21 16:37:31 2024
  Total elapsed time: 00:00:10