
  EPA STORM WATER MANAGEMENT MODEL - VERSION 5.2 (Build 5.2.4)
  PYSWMM TOOLKIT API - VERSION v1.0 (2023-11-27)
  ------------------------------------------------------------

  Gievenbeck_2014-10-19 16 40 00_hN6 95 
  
  ****************
  Analysis Options
  ****************
  Flow Units ............... CMS
  Process Models:
    Rainfall/Runoff ........ YES
    RDII ................... NO
    Snowmelt ............... NO
    Groundwater ............ NO
    Flow Routing ........... YES
    Ponding Allowed ........ NO
    Water Quality .......... NO
  Infiltration Method ...... HORTON
  Flow Routing Method ...... DYNWAVE
  Surcharge Method ......... SLOT
  Starting Date ............ 01/01/2024 00:00:00
  Ending Date .............. 01/04/2024 04:00:00
  Antecedent Dry Days ...... 14.0
  Report Time Step ......... 00:01:00
  Wet Time Step ............ 00:01:00
  Dry Time Step ............ 00:01:00
  Routing Time Step ........ 1.00 sec
  Variable Time Step ....... YES
  Maximum Trials ........... 8
  Number of Threads ........ 1
  Head Tolerance ........... 0.001500 m
  
  
  **************************        Volume         Depth
  Runoff Quantity Continuity     hectare-m            mm
  **************************     ---------       -------
  Total Precipitation ......         0.070         6.950
  Evaporation Loss .........         0.010         0.953
  Infiltration Loss ........         0.039         3.836
  Surface Runoff ...........         0.022         2.170
  Final Storage ............         0.000         0.000
  Continuity Error (%) .....        -0.131
  
  
  **************************        Volume        Volume
  Flow Routing Continuity        hectare-m      10^6 ltr
  **************************     ---------     ---------
  Dry Weather Inflow .......         0.000         0.000
  Wet Weather Inflow .......         0.022         0.220
  Groundwater Inflow .......         0.000         0.000
  RDII Inflow ..............         0.000         0.000
  External Inflow ..........         0.000         0.000
  External Outflow .........         0.022         0.220
  Flooding Loss ............         0.000         0.000
  Evaporation Loss .........         0.000         0.000
  Exfiltration Loss ........         0.000         0.000
  Initial Stored Volume ....         0.000         0.000
  Final Stored Volume ......         0.000         0.000
  Continuity Error (%) .....        -0.197
  
  
  ***************************
  Time-Step Critical Elements
  ***************************
  None
  
  
  ********************************
  Highest Flow Instability Indexes
  ********************************
  All links are stable.
  
  
  *********************************
  Most Frequent Nonconverging Nodes
  *********************************
  Convergence obtained at all time steps.
  
  
  *************************
  Routing Time Step Summary
  *************************
  Minimum Time Step           :     0.50 sec
  Average Time Step           :     1.00 sec
  Maximum Time Step           :     1.00 sec
  % of Time in Steady State   :     0.00
  Average Iterations per Step :     2.00
  % of Steps Not Converging   :     0.00
  Time Step Frequencies       :
      1.000 -  0.871 sec      :   100.00 %
      0.871 -  0.758 sec      :     0.00 %
      0.758 -  0.660 sec      :     0.00 %
      0.660 -  0.574 sec      :     0.00 %
      0.574 -  0.500 sec      :     0.00 %
  
  
  ***************************
  Subcatchment Runoff Summary
  ***************************
  
  ------------------------------------------------------------------------------------------------------------------------------
                            Total      Total      Total      Total     Imperv       Perv      Total       Total     Peak  Runoff
                           Precip      Runon       Evap      Infil     Runoff     Runoff     Runoff      Runoff   Runoff   Coeff
  Subcatchment                 mm         mm         mm         mm         mm         mm         mm    10^6 ltr      CMS
  ------------------------------------------------------------------------------------------------------------------------------
  EZG_368                    6.95       0.00       0.95       3.86       2.54       0.00       2.16        0.01     0.01   0.310
  EZG_392                    6.95       0.00       0.94       3.86       2.54       0.00       2.16        0.01     0.01   0.311
  EZG_352                    6.95       0.00       0.95       3.85       2.53       0.00       2.15        0.01     0.02   0.309
  EZG_372                    6.95       0.00       0.93       3.86       2.55       0.00       2.17        0.00     0.01   0.312
  EZG_416                    6.95       0.00       0.94       3.86       2.54       0.00       2.16        0.01     0.01   0.311
  EZG_388                    6.95       0.00       0.95       3.86       2.53       0.00       2.15        0.01     0.01   0.310
  EZG_394                    6.95       0.00       0.94       3.86       2.54       0.00       2.16        0.01     0.01   0.311
  EZG_400                    6.95       0.00       0.94       3.86       2.54       0.00       2.16        0.01     0.01   0.311
  EZG_390                    6.95       0.00       0.94       3.86       2.54       0.00       2.16        0.01     0.01   0.311
  EZG_350                    6.95       0.00       0.95       3.86       2.53       0.00       2.15        0.01     0.01   0.310
  EZG_370                    6.95       0.00       0.95       3.86       2.54       0.00       2.16        0.01     0.01   0.311
  EZG_398                    6.95       0.00       0.93       3.86       2.56       0.00       2.17        0.00     0.00   0.313
  EZG_382                    6.95       0.00       0.93       3.86       2.56       0.00       2.18        0.00     0.00   0.313
  EZG_374                    6.95       0.00       1.14       3.24       3.04       0.00       2.58        0.01     0.01   0.372
  EZG_412                    6.95       0.00       0.92       3.86       2.57       0.00       2.18        0.00     0.00   0.314
  EZG_344                    6.95       0.00       0.94       3.86       2.54       0.00       2.16        0.01     0.01   0.311
  EZG_376                    6.95       0.00       0.94       3.86       2.55       0.00       2.17        0.00     0.01   0.312
  EZG_356                    6.95       0.00       0.95       3.85       2.53       0.00       2.15        0.01     0.02   0.309
  EZG_386                    6.95       0.00       0.96       3.85       2.52       0.00       2.15        0.02     0.02   0.309
  EZG_380                    6.95       0.00       0.95       3.86       2.54       0.00       2.16        0.01     0.01   0.310
  EZG_378                    6.95       0.00       0.94       3.86       2.54       0.00       2.16        0.01     0.01   0.311
  EZG_414                    6.95       0.00       0.93       3.86       2.56       0.00       2.18        0.00     0.00   0.313
  EZG_402                    6.95       0.00       0.94       3.86       2.54       0.00       2.16        0.01     0.01   0.311
  EZG_358                    6.95       0.00       0.95       3.85       2.53       0.00       2.15        0.01     0.02   0.309
  EZG_364                    6.95       0.00       0.95       3.85       2.53       0.00       2.15        0.01     0.02   0.309
  EZG_410                    6.95       0.00       0.94       3.86       2.55       0.00       2.17        0.00     0.01   0.312
  EZG_366                    6.95       0.00       0.94       3.86       2.55       0.00       2.16        0.01     0.01   0.311
  EZG_18259                  6.95       0.00       0.94       3.86       2.55       0.00       2.16        0.01     0.01   0.311
  EZG_18258                  6.95       0.00       0.93       3.86       2.56       0.00       2.18        0.00     0.00   0.314
  EZG_346                    6.95       0.00       0.93       3.92       2.49       0.00       2.12        0.01     0.01   0.304
  EZG_348                    6.95       0.00       0.92       3.92       2.50       0.00       2.12        0.00     0.01   0.305
  
  
  ******************
  Node Depth Summary
  ******************
  
  ---------------------------------------------------------------------------------
                                 Average  Maximum  Maximum  Time of Max    Reported
                                   Depth    Depth      HGL   Occurrence   Max Depth
  Node                 Type       Meters   Meters   Meters  days hr:min      Meters
  ---------------------------------------------------------------------------------
  R0019466             JUNCTION     0.00     0.13    69.58     0  02:11        0.13
  R0019468             JUNCTION     0.00     0.14    69.45     0  02:12        0.14
  R0019831             JUNCTION     0.00     0.07    69.24     0  02:10        0.07
  R0019825             JUNCTION     0.00     0.12    68.96     0  02:11        0.12
  R0019843             JUNCTION     0.00     0.19    67.82     0  02:15        0.19
  R0019368             JUNCTION     0.00     0.28    67.07     0  02:16        0.28
  R0019369             JUNCTION     0.00     0.21    66.80     0  02:16        0.21
  R0019370             JUNCTION     0.00     0.18    66.08     0  02:16        0.18
  R0019345             JUNCTION     0.00     0.13    70.03     0  02:12        0.13
  R0019346             JUNCTION     0.00     0.12    69.92     0  02:12        0.12
  R0043600             JUNCTION     0.00     0.14    69.81     0  02:13        0.14
  R0019203             JUNCTION     0.00     0.15    69.69     0  02:14        0.15
  R0043594             JUNCTION     0.00     0.11    69.84     0  02:11        0.11
  R0021458             JUNCTION     0.00     0.14    69.79     0  02:12        0.14
  R0019202             JUNCTION     0.00     0.13    69.71     0  02:14        0.13
  R0019373             JUNCTION     0.00     0.08    69.75     0  02:10        0.08
  R0019254             JUNCTION     0.00     0.12    70.16     0  02:11        0.12
  R0019716             JUNCTION     0.00     0.17    69.18     0  02:15        0.17
  R0019946             JUNCTION     0.00     0.27    68.89     0  02:15        0.27
  R0013935             JUNCTION     0.00     0.07    68.90     0  02:10        0.07
  R0019939             JUNCTION     0.00     0.11    68.68     0  02:11        0.11
  R0019944             JUNCTION     0.00     0.16    68.44     0  02:15        0.16
  R0043703             JUNCTION     0.00     0.19    68.79     0  02:15        0.19
  R0019945             JUNCTION     0.00     0.20    68.60     0  02:15        0.20
  R0039621             JUNCTION     0.00     0.01    69.58     0  02:12        0.01
  R0019838             JUNCTION     0.00     0.12    69.58     0  02:11        0.12
  R0039606             JUNCTION     0.00     0.13    69.72     0  02:14        0.13
  R0019204             JUNCTION     0.00     0.00    69.91     0  00:00        0.00
  R0019205             JUNCTION     0.00     0.00    69.62     0  00:00        0.00
  R0019849             JUNCTION     0.00     0.13    68.65     0  02:12        0.13
  R0019371             JUNCTION     0.00     0.00    70.41     0  00:00        0.00
  R0019718             JUNCTION     0.00     0.22    69.64     0  02:15        0.22
  R0021442             JUNCTION     0.00     0.15    70.20     0  02:11        0.15
  R0019247             JUNCTION     0.00     0.15    70.03     0  02:12        0.15
  R0019719             JUNCTION     0.00     0.13    69.81     0  02:13        0.13
  R0019767             JUNCTION     0.00     0.19    64.92     0  02:16        0.19
  R0019768             JUNCTION     0.00     0.16    63.93     0  02:16        0.16
  R0021453             JUNCTION     0.00     0.05    70.00     0  02:10        0.05
  R0019839             JUNCTION     0.00     0.11    69.50     0  02:11        0.10
  R0019717             JUNCTION     0.00     0.18    69.52     0  02:15        0.18
  R0019252             JUNCTION     0.00     0.09    70.28     0  02:10        0.09
  R0019721             JUNCTION     0.00     0.10    69.97     0  02:11        0.10
  R0019942             JUNCTION     0.00     0.09    68.74     0  02:11        0.09
  R0019206             JUNCTION     0.00     0.00    69.07     0  00:00        0.00
  R0019840             JUNCTION     0.00     0.10    69.07     0  02:12        0.10
  R0043702             JUNCTION     0.00     0.14    68.84     0  02:12        0.14
  R0019723             JUNCTION     0.00     0.08    70.16     0  02:10        0.07
  R0019724             JUNCTION     0.00     0.04    70.20     0  02:10        0.04
  R0021433             JUNCTION     0.00     0.09    70.48     0  02:10        0.09
  R0021435             JUNCTION     0.00     0.11    70.29     0  02:11        0.11
  R0019769             OUTFALL      0.00     0.16    63.54     0  02:17        0.16
  
  
  *******************
  Node Inflow Summary
  *******************
  
  -------------------------------------------------------------------------------------------------
                                  Maximum  Maximum                  Lateral       Total        Flow
                                  Lateral    Total  Time of Max      Inflow      Inflow     Balance
                                   Inflow   Inflow   Occurrence      Volume      Volume       Error
  Node                 Type           CMS      CMS  days hr:min    10^6 ltr    10^6 ltr     Percent
  -------------------------------------------------------------------------------------------------
  R0019466             JUNCTION     0.013    0.023     0  02:10     0.00891      0.0167      -0.083
  R0019468             JUNCTION     0.009    0.029     0  02:11     0.00518      0.0219       0.079
  R0019831             JUNCTION     0.011    0.011     0  02:10     0.00699     0.00699      -0.271
  R0019825             JUNCTION     0.011    0.020     0  02:10     0.00702       0.014      -0.038
  R0019843             JUNCTION     0.000    0.243     0  02:15           0        0.22      -0.041
  R0019368             JUNCTION     0.000    0.242     0  02:15           0        0.22       0.001
  R0019369             JUNCTION     0.000    0.241     0  02:16           0        0.22       0.005
  R0019370             JUNCTION     0.000    0.241     0  02:16           0        0.22       0.009
  R0019345             JUNCTION     0.000    0.018     0  02:11           0      0.0137       0.313
  R0019346             JUNCTION     0.002    0.031     0  02:12    0.000872       0.023       0.106
  R0043600             JUNCTION     0.000    0.033     0  02:13           0      0.0266       0.343
  R0019203             JUNCTION     0.004    0.071     0  02:14     0.00192      0.0595      -0.040
  R0043594             JUNCTION     0.017    0.025     0  02:10      0.0127      0.0181      -0.707
  R0021458             JUNCTION     0.014    0.035     0  02:11     0.00989      0.0282      -0.038
  R0019202             JUNCTION     0.005    0.036     0  02:13     0.00294      0.0311      -0.056
  R0019373             JUNCTION     0.012    0.012     0  02:10     0.00774     0.00774      -0.130
  R0019254             JUNCTION     0.010    0.019     0  02:10      0.0063      0.0137      -0.167
  R0019716             JUNCTION     0.014    0.140     0  02:15     0.00982       0.123      -0.102
  R0019946             JUNCTION     0.000    0.139     0  02:15           0       0.123       0.128
  R0013935             JUNCTION     0.010    0.010     0  02:10       0.006       0.006      -0.295
  R0019939             JUNCTION     0.004    0.013     0  02:10     0.00215     0.00817      -0.046
  R0019944             JUNCTION     0.009    0.175     0  02:15     0.00557       0.157      -0.005
  R0043703             JUNCTION     0.011    0.146     0  02:15     0.00683        0.13      -0.015
  R0019945             JUNCTION     0.000    0.171     0  02:15           0       0.152       0.010
  R0039621             JUNCTION     0.000    0.000     0  02:11           0    2.47e-05       2.094 ltr
  R0019838             JUNCTION     0.018    0.018     0  02:10      0.0138      0.0138      -0.026
  R0039606             JUNCTION     0.000    0.033     0  02:13           0      0.0282       0.332
  R0019204             JUNCTION     0.000    0.000     0  00:00           0           0       0.000 ltr
  R0019205             JUNCTION     0.000    0.000     0  00:00           0           0       0.000 ltr
  R0019849             JUNCTION     0.000    0.031     0  02:11           0      0.0222       0.040
  R0019371             JUNCTION     0.000    0.000     0  00:00           0           0       0.000 ltr
  R0019718             JUNCTION     0.012    0.080     0  02:14      0.0084      0.0679      -0.803
  R0021442             JUNCTION     0.013    0.029     0  02:11     0.00979      0.0222      -0.075
  R0019247             JUNCTION     0.007    0.034     0  02:11     0.00432      0.0265      -0.267
  R0019719             JUNCTION     0.008    0.036     0  02:12     0.00455      0.0275      -0.040
  R0019767             JUNCTION     0.000    0.241     0  02:16           0        0.22       0.000
  R0019768             JUNCTION     0.000    0.241     0  02:16           0        0.22       0.032
  R0021453             JUNCTION     0.009    0.009     0  02:10     0.00547     0.00547       0.742
  R0019839             JUNCTION     0.017    0.032     0  02:11      0.0136      0.0274      -0.107
  R0019717             JUNCTION     0.020    0.130     0  02:15      0.0171       0.113       0.162
  R0019252             JUNCTION     0.011    0.011     0  02:10      0.0074      0.0074      -0.290
  R0019721             JUNCTION     0.004    0.013     0  02:10     0.00189      0.0084       0.062
  R0019942             JUNCTION     0.000    0.019     0  02:11           0       0.014       0.171
  R0019206             JUNCTION     0.000    0.000     0  00:00           0           0       0.000 ltr
  R0019840             JUNCTION     0.000    0.059     0  02:12           0      0.0492       0.064
  R0043702             JUNCTION     0.017    0.075     0  02:12      0.0136      0.0628      -0.017
  R0019723             JUNCTION     0.008    0.011     0  02:10     0.00514     0.00648      -0.363
  R0019724             JUNCTION     0.003    0.003     0  02:10     0.00133     0.00133      -0.386
  R0021433             JUNCTION     0.012    0.012     0  02:10      0.0077      0.0077      -0.296
  R0021435             JUNCTION     0.008    0.018     0  02:10     0.00472      0.0124       0.136
  R0019769             OUTFALL      0.000    0.241     0  02:17           0        0.22       0.000
  
  
  **********************
  Node Surcharge Summary
  **********************
  
  No nodes were surcharged.
  
  
  *********************
  Node Flooding Summary
  *********************
  
  No nodes were flooded.
  
  
  ***********************
  Outfall Loading Summary
  ***********************
  
  -----------------------------------------------------------
                         Flow       Avg       Max       Total
                         Freq      Flow      Flow      Volume
  Outfall Node           Pcnt       CMS       CMS    10^6 ltr
  -----------------------------------------------------------
  R0019769               3.95     0.020     0.241       0.220
  -----------------------------------------------------------
  System                 3.95     0.020     0.241       0.220
  
  
  ********************
  Link Flow Summary
  ********************
  
  -----------------------------------------------------------------------------
                                 Maximum  Time of Max   Maximum    Max/    Max/
                                  |Flow|   Occurrence   |Veloc|    Full    Full
  Link                 Type          CMS  days hr:min     m/sec    Flow   Depth
  -----------------------------------------------------------------------------
  H0014431             CONDUIT     0.022     0  02:11      0.74    0.41    0.45
  H0014433             CONDUIT     0.010     0  02:10      0.54    0.13    0.32
  H0014352             CONDUIT     0.242     0  02:15      1.85    0.10    0.26
  H0014373             CONDUIT     0.241     0  02:16      2.43    0.11    0.21
  H0017981             CONDUIT     0.018     0  02:12      0.71    0.51    0.39
  H0017755             CONDUIT     0.033     0  02:13      0.91    0.27    0.33
  H0017791             CONDUIT     0.022     0  02:11      0.44    0.03    0.14
  H0017357             CONDUIT     0.000     0  00:00      0.00    0.00    0.13
  H0018216             CONDUIT     0.018     0  02:11      0.69    0.34    0.42
  H0016792             CONDUIT     0.139     0  02:15      1.14    0.08    0.25
  H0019507             CONDUIT     0.009     0  02:10      0.53    0.13    0.30
  H0019998             CONDUIT     0.175     0  02:15      1.99    0.07    0.20
  H0019576             CONDUIT     0.146     0  02:15      1.45    0.10    0.22
  H0020087             CONDUIT     0.000     0  02:11      0.03    0.00    0.12
  H0020211             CONDUIT     0.140     0  02:15      1.08    0.35    0.26
  H0018982             CONDUIT     0.033     0  02:13      0.57    0.05    0.15
  H0018753             CONDUIT     0.011     0  02:10      0.48    0.15    0.35
  H0018845             CONDUIT     0.000     0  00:00      0.00    0.00    0.00
  H0018863             CONDUIT     0.012     0  02:11      0.49    0.28    0.39
  H0019156             CONDUIT     0.000     0  00:00      0.00    0.00    0.00
  H0018929             CONDUIT     0.071     0  02:14      0.79    0.06    0.20
  H0018440             CONDUIT     0.029     0  02:12      0.81    0.51    0.51
  H0018456             CONDUIT     0.031     0  02:12      0.96    0.19    0.31
  H0018968             CONDUIT     0.241     0  02:16      2.76    0.09    0.19
  H0022036             CONDUIT     0.008     0  02:10      0.48    0.01    0.07
  H0021806             CONDUIT     0.033     0  02:13      0.83    0.30    0.36
  H0022111             CONDUIT     0.016     0  02:11      0.49    0.11    0.22
  H0021440             CONDUIT     0.130     0  02:15      1.50    0.08    0.19
  H0021704             CONDUIT     0.079     0  02:15      0.82    0.15    0.21
  H0020521             CONDUIT     0.010     0  02:10      0.47    0.21    0.35
  H0020755             CONDUIT     0.012     0  02:11      0.48    0.13    0.27
  H0020530             CONDUIT     0.241     0  02:16      1.75    0.21    0.27
  H0020618             CONDUIT     0.170     0  02:15      1.89    0.11    0.20
  H0021163             CONDUIT     0.019     0  02:11      0.90    0.32    0.35
  H0020497             CONDUIT     0.000     0  00:00      0.00    0.00    0.32
  H0024325             CONDUIT     0.032     0  02:12      1.14    0.09    0.20
  H0023585             CONDUIT     0.074     0  02:12      1.65    0.17    0.28
  H0024098             CONDUIT     0.031     0  02:11      1.10    0.36    0.51
  H0024235             CONDUIT     0.036     0  02:13      0.91    0.15    0.25
  H0024282             CONDUIT     0.000     0  00:00      0.00    0.00    0.00
  H0024308             CONDUIT     0.241     0  02:17      3.10    0.07    0.18
  H0024498             CONDUIT     0.028     0  02:12      0.92    0.43    0.44
  H0026990             CONDUIT     0.010     0  02:10      0.56    0.08    0.21
  H0041650             CONDUIT     0.036     0  02:14      0.57    0.04    0.16
  H0041011             CONDUIT     0.019     0  02:11      0.85    0.19    0.36
  H0045103             CONDUIT     0.033     0  02:14      0.58    0.04    0.14
  H0045104             CONDUIT     0.241     0  02:16      2.59    0.09    0.20
  H0045105             CONDUIT     0.003     0  02:10      0.28    0.05    0.20
  H0045106             CONDUIT     0.059     0  02:12      1.68    0.08    0.24
  H0045107             CONDUIT     0.011     0  02:10      0.56    0.18    0.33
  H0045108             CONDUIT     0.017     0  02:11      0.56    0.30    0.44
  
  
  ***************************
  Flow Classification Summary
  ***************************
  
  -------------------------------------------------------------------------------------
                      Adjusted    ---------- Fraction of Time in Flow Class ---------- 
                       /Actual         Up    Down  Sub   Sup   Up    Down  Norm  Inlet 
  Conduit               Length    Dry  Dry   Dry   Crit  Crit  Crit  Crit  Ltd   Ctrl  
  -------------------------------------------------------------------------------------
  H0014431                1.00   0.03  0.93  0.00  0.04  0.00  0.00  0.00  0.97  0.00
  H0014433                1.00   0.03  0.00  0.00  0.97  0.00  0.00  0.00  0.97  0.00
  H0014352                1.00   0.03  0.00  0.00  0.96  0.02  0.00  0.00  0.97  0.00
  H0014373                1.00   0.03  0.00  0.00  0.94  0.03  0.00  0.00  0.92  0.00
  H0017981                1.00   0.03  0.00  0.00  0.00  0.00  0.00  0.97  0.00  0.00
  H0017755                1.00   0.03  0.00  0.00  0.00  0.00  0.00  0.97  0.00  0.00
  H0017791                1.00   0.03  0.00  0.00  0.97  0.00  0.00  0.00  0.97  0.00
  H0017357                1.00   0.03  0.97  0.00  0.00  0.00  0.00  0.00  0.00  0.00
  H0018216                1.00   0.03  0.93  0.00  0.04  0.00  0.00  0.00  0.97  0.00
  H0016792                1.00   0.03  0.93  0.00  0.05  0.00  0.00  0.00  0.97  0.00
  H0019507                1.00   0.03  0.00  0.00  0.97  0.00  0.00  0.00  0.97  0.00
  H0019998                1.00   0.03  0.00  0.00  0.94  0.03  0.00  0.00  0.05  0.00
  H0019576                1.00   0.03  0.00  0.00  0.96  0.01  0.00  0.00  0.05  0.00
  H0020087                1.00   0.03  0.96  0.00  0.01  0.00  0.00  0.00  0.97  0.00
  H0020211                1.00   0.03  0.00  0.00  0.97  0.00  0.00  0.00  0.92  0.00
  H0018982                1.00   0.03  0.00  0.00  0.97  0.00  0.00  0.00  0.95  0.00
  H0018753                1.00   0.03  0.00  0.00  0.97  0.00  0.00  0.00  0.97  0.00
  H0018845                1.00   1.00  0.00  0.00  0.00  0.00  0.00  0.00  0.00  0.00
  H0018863                1.00   0.03  0.00  0.00  0.97  0.00  0.00  0.00  0.97  0.00
  H0019156                1.00   1.00  0.00  0.00  0.00  0.00  0.00  0.00  0.00  0.00
  H0018929                1.00   0.03  0.93  0.00  0.04  0.00  0.00  0.00  0.97  0.00
  H0018440                1.00   0.03  0.00  0.00  0.97  0.00  0.00  0.00  0.97  0.00
  H0018456                1.00   0.03  0.00  0.00  0.97  0.00  0.00  0.00  0.97  0.00
  H0018968                1.00   0.03  0.92  0.00  0.01  0.04  0.00  0.00  0.94  0.00
  H0022036                1.00   0.03  0.00  0.00  0.01  0.00  0.00  0.97  0.00  0.00
  H0021806                1.00   0.03  0.93  0.00  0.04  0.00  0.00  0.00  0.97  0.00
  H0022111                1.00   0.03  0.00  0.00  0.97  0.00  0.00  0.00  0.00  0.00
  H0021440                1.00   0.03  0.00  0.00  0.96  0.02  0.00  0.00  0.02  0.00
  H0021704                1.00   0.03  0.00  0.00  0.00  0.00  0.00  0.97  0.00  0.00
  H0020521                1.00   0.03  0.00  0.00  0.97  0.00  0.00  0.00  0.97  0.00
  H0020755                1.00   0.03  0.94  0.00  0.03  0.00  0.00  0.00  0.97  0.00
  H0020530                1.00   0.03  0.00  0.00  0.96  0.02  0.00  0.00  0.00  0.00
  H0020618                1.00   0.03  0.00  0.00  0.95  0.02  0.00  0.00  0.93  0.00
  H0021163                1.00   0.03  0.00  0.00  0.97  0.00  0.00  0.00  0.94  0.00
  H0020497                1.20   0.03  0.97  0.00  0.00  0.00  0.00  0.00  0.00  0.00
  H0024325                1.00   0.03  0.00  0.00  0.95  0.02  0.00  0.00  0.94  0.00
  H0023585                1.00   0.03  0.00  0.00  0.00  0.00  0.00  0.97  0.00  0.00
  H0024098                1.00   0.03  0.93  0.00  0.04  0.00  0.00  0.00  0.97  0.00
  H0024235                1.00   0.03  0.00  0.00  0.00  0.00  0.00  0.97  0.00  0.00
  H0024282                1.00   1.00  0.00  0.00  0.00  0.00  0.00  0.00  0.00  0.00
  H0024308                1.00   0.03  0.00  0.00  0.92  0.05  0.00  0.00  0.01  0.00
  H0024498                1.00   0.03  0.00  0.00  0.00  0.00  0.00  0.97  0.00  0.00
  H0026990                1.00   0.03  0.00  0.00  0.97  0.00  0.00  0.00  0.97  0.00
  H0041650                1.00   0.96  0.01  0.00  0.03  0.00  0.00  0.00  0.97  0.00
  H0041011                1.00   0.03  0.00  0.00  0.97  0.00  0.00  0.00  0.97  0.00
  H0045103                1.00   0.03  0.00  0.00  0.97  0.00  0.00  0.00  0.96  0.00
  H0045104                1.00   0.03  0.00  0.00  0.93  0.04  0.00  0.00  0.05  0.00
  H0045105                1.00   0.03  0.00  0.00  0.97  0.00  0.00  0.00  0.97  0.00
  H0045106                1.00   0.03  0.93  0.00  0.02  0.02  0.00  0.00  0.97  0.00
  H0045107                1.00   0.03  0.00  0.00  0.97  0.00  0.00  0.00  0.97  0.00
  H0045108                1.00   0.03  0.00  0.00  0.97  0.00  0.00  0.00  0.97  0.00
  
  
  *************************
  Conduit Surcharge Summary
  *************************
  
  No conduits were surcharged.
  

  Analysis begun on:  Fri Mar 22 15:54:40 2024
  Analysis ended on:  Fri Mar 22 15:54:49 2024
  Total elapsed time: 00:00:09