
  EPA STORM WATER MANAGEMENT MODEL - VERSION 5.2 (Build 5.2.4)
  PYSWMM TOOLKIT API - VERSION v1.0 (2023-11-27)
  ------------------------------------------------------------

  Gievenbeck_2015-03-03 23 05 00_hN1 01 
  
  ****************
  Analysis Options
  ****************
  Flow Units ............... CMS
  Process Models:
    Rainfall/Runoff ........ YES
    RDII ................... NO
    Snowmelt ............... NO
    Groundwater ............ NO
    Flow Routing ........... YES
    Ponding Allowed ........ NO
    Water Quality .......... NO
  Infiltration Method ...... HORTON
  Flow Routing Method ...... DYNWAVE
  Surcharge Method ......... SLOT
  Starting Date ............ 01/01/2024 00:00:00
  Ending Date .............. 01/08/2024 04:00:00
  Antecedent Dry Days ...... 14.0
  Report Time Step ......... 00:01:00
  Wet Time Step ............ 00:01:00
  Dry Time Step ............ 00:01:00
  Routing Time Step ........ 1.00 sec
  Variable Time Step ....... YES
  Maximum Trials ........... 8
  Number of Threads ........ 1
  Head Tolerance ........... 0.001500 m
  
  
  **************************        Volume         Depth
  Runoff Quantity Continuity     hectare-m            mm
  **************************     ---------       -------
  Total Precipitation ......         0.010         1.010
  Evaporation Loss .........         0.005         0.508
  Infiltration Loss ........         0.005         0.502
  Surface Runoff ...........         0.000         0.000
  Final Storage ............         0.000         0.000
  Continuity Error (%) .....         0.000
  
  
  **************************        Volume        Volume
  Flow Routing Continuity        hectare-m      10^6 ltr
  **************************     ---------     ---------
  Dry Weather Inflow .......         0.000         0.000
  Wet Weather Inflow .......         0.000         0.000
  Groundwater Inflow .......         0.000         0.000
  RDII Inflow ..............         0.000         0.000
  External Inflow ..........         0.000         0.000
  External Outflow .........         0.000         0.000
  Flooding Loss ............         0.000         0.000
  Evaporation Loss .........         0.000         0.000
  Exfiltration Loss ........         0.000         0.000
  Initial Stored Volume ....         0.000         0.000
  Final Stored Volume ......         0.000         0.000
  Continuity Error (%) .....         0.000
  
  
  ***************************
  Time-Step Critical Elements
  ***************************
  None
  
  
  ********************************
  Highest Flow Instability Indexes
  ********************************
  All links are stable.
  
  
  *********************************
  Most Frequent Nonconverging Nodes
  *********************************
  Convergence obtained at all time steps.
  
  
  *************************
  Routing Time Step Summary
  *************************
  Minimum Time Step           :     0.50 sec
  Average Time Step           :     1.00 sec
  Maximum Time Step           :     1.00 sec
  % of Time in Steady State   :     0.00
  Average Iterations per Step :     2.00
  % of Steps Not Converging   :     0.00
  Time Step Frequencies       :
      1.000 -  0.871 sec      :   100.00 %
      0.871 -  0.758 sec      :     0.00 %
      0.758 -  0.660 sec      :     0.00 %
      0.660 -  0.574 sec      :     0.00 %
      0.574 -  0.500 sec      :     0.00 %
  
  
  ***************************
  Subcatchment Runoff Summary
  ***************************
  
  ------------------------------------------------------------------------------------------------------------------------------
                            Total      Total      Total      Total     Imperv       Perv      Total       Total     Peak  Runoff
                           Precip      Runon       Evap      Infil     Runoff     Runoff     Runoff      Runoff   Runoff   Coeff
  Subcatchment                 mm         mm         mm         mm         mm         mm         mm    10^6 ltr      CMS
  ------------------------------------------------------------------------------------------------------------------------------
  EZG_368                    1.01       0.00       0.50       0.51       0.00       0.00       0.00        0.00     0.00   0.000
  EZG_392                    1.01       0.00       0.50       0.51       0.00       0.00       0.00        0.00     0.00   0.000
  EZG_352                    1.01       0.00       0.50       0.50       0.00       0.00       0.00        0.00     0.00   0.000
  EZG_372                    1.01       0.00       0.50       0.51       0.00       0.00       0.00        0.00     0.00   0.000
  EZG_416                    1.01       0.00       0.50       0.51       0.00       0.00       0.00        0.00     0.00   0.000
  EZG_388                    1.01       0.00       0.50       0.50       0.00       0.00       0.00        0.00     0.00   0.000
  EZG_394                    1.01       0.00       0.50       0.50       0.00       0.00       0.00        0.00     0.00   0.000
  EZG_400                    1.01       0.00       0.50       0.50       0.00       0.00       0.00        0.00     0.00   0.000
  EZG_390                    1.01       0.00       0.50       0.50       0.00       0.00       0.00        0.00     0.00   0.000
  EZG_350                    1.01       0.00       0.50       0.50       0.00       0.00       0.00        0.00     0.00   0.000
  EZG_370                    1.01       0.00       0.50       0.51       0.00       0.00       0.00        0.00     0.00   0.000
  EZG_398                    1.01       0.00       0.50       0.50       0.00       0.00       0.00        0.00     0.00   0.000
  EZG_382                    1.01       0.00       0.50       0.51       0.00       0.00       0.00        0.00     0.00   0.000
  EZG_374                    1.01       0.00       0.61       0.40       0.00       0.00       0.00        0.00     0.00   0.000
  EZG_412                    1.01       0.00       0.50       0.51       0.00       0.00       0.00        0.00     0.00   0.000
  EZG_344                    1.01       0.00       0.50       0.51       0.00       0.00       0.00        0.00     0.00   0.000
  EZG_376                    1.01       0.00       0.50       0.51       0.00       0.00       0.00        0.00     0.00   0.000
  EZG_356                    1.01       0.00       0.50       0.50       0.00       0.00       0.00        0.00     0.00   0.000
  EZG_386                    1.01       0.00       0.50       0.51       0.00       0.00       0.00        0.00     0.00   0.000
  EZG_380                    1.01       0.00       0.50       0.51       0.00       0.00       0.00        0.00     0.00   0.000
  EZG_378                    1.01       0.00       0.50       0.50       0.00       0.00       0.00        0.00     0.00   0.000
  EZG_414                    1.01       0.00       0.50       0.51       0.00       0.00       0.00        0.00     0.00   0.000
  EZG_402                    1.01       0.00       0.50       0.51       0.00       0.00       0.00        0.00     0.00   0.000
  EZG_358                    1.01       0.00       0.50       0.51       0.00       0.00       0.00        0.00     0.00   0.000
  EZG_364                    1.01       0.00       0.50       0.51       0.00       0.00       0.00        0.00     0.00   0.000
  EZG_410                    1.01       0.00       0.50       0.51       0.00       0.00       0.00        0.00     0.00   0.000
  EZG_366                    1.01       0.00       0.50       0.50       0.00       0.00       0.00        0.00     0.00   0.000
  EZG_18259                  1.01       0.00       0.50       0.51       0.00       0.00       0.00        0.00     0.00   0.000
  EZG_18258                  1.01       0.00       0.50       0.50       0.00       0.00       0.00        0.00     0.00   0.000
  EZG_346                    1.01       0.00       0.49       0.52       0.00       0.00       0.00        0.00     0.00   0.000
  EZG_348                    1.01       0.00       0.49       0.52       0.00       0.00       0.00        0.00     0.00   0.000
  
  
  ******************
  Node Depth Summary
  ******************
  
  ---------------------------------------------------------------------------------
                                 Average  Maximum  Maximum  Time of Max    Reported
                                   Depth    Depth      HGL   Occurrence   Max Depth
  Node                 Type       Meters   Meters   Meters  days hr:min      Meters
  ---------------------------------------------------------------------------------
  R0019466             JUNCTION     0.00     0.00    69.45     0  00:00        0.00
  R0019468             JUNCTION     0.00     0.00    69.31     0  00:00        0.00
  R0019831             JUNCTION     0.00     0.00    69.17     0  00:00        0.00
  R0019825             JUNCTION     0.00     0.00    68.84     0  00:00        0.00
  R0019843             JUNCTION     0.00     0.00    67.63     0  00:00        0.00
  R0019368             JUNCTION     0.00     0.00    66.79     0  00:00        0.00
  R0019369             JUNCTION     0.00     0.00    66.59     0  00:00        0.00
  R0019370             JUNCTION     0.00     0.00    65.90     0  00:00        0.00
  R0019345             JUNCTION     0.00     0.00    69.90     0  00:00        0.00
  R0019346             JUNCTION     0.00     0.00    69.80     0  00:00        0.00
  R0043600             JUNCTION     0.00     0.00    69.67     0  00:00        0.00
  R0019203             JUNCTION     0.00     0.00    69.54     0  00:00        0.00
  R0043594             JUNCTION     0.00     0.00    69.73     0  00:00        0.00
  R0021458             JUNCTION     0.00     0.00    69.65     0  00:00        0.00
  R0019202             JUNCTION     0.00     0.00    69.58     0  00:00        0.00
  R0019373             JUNCTION     0.00     0.00    69.67     0  00:00        0.00
  R0019254             JUNCTION     0.00     0.00    70.04     0  00:00        0.00
  R0019716             JUNCTION     0.00     0.00    69.01     0  00:00        0.00
  R0019946             JUNCTION     0.00     0.00    68.62     0  00:00        0.00
  R0013935             JUNCTION     0.00     0.00    68.83     0  00:00        0.00
  R0019939             JUNCTION     0.00     0.00    68.57     0  00:00        0.00
  R0019944             JUNCTION     0.00     0.00    68.28     0  00:00        0.00
  R0043703             JUNCTION     0.00     0.00    68.60     0  00:00        0.00
  R0019945             JUNCTION     0.00     0.00    68.40     0  00:00        0.00
  R0039621             JUNCTION     0.00     0.00    69.57     0  00:00        0.00
  R0019838             JUNCTION     0.00     0.00    69.46     0  00:00        0.00
  R0039606             JUNCTION     0.00     0.00    69.59     0  00:00        0.00
  R0019204             JUNCTION     0.00     0.00    69.91     0  00:00        0.00
  R0019205             JUNCTION     0.00     0.00    69.62     0  00:00        0.00
  R0019849             JUNCTION     0.00     0.00    68.52     0  00:00        0.00
  R0019371             JUNCTION     0.00     0.00    70.41     0  00:00        0.00
  R0019718             JUNCTION     0.00     0.00    69.42     0  00:00        0.00
  R0021442             JUNCTION     0.00     0.00    70.05     0  00:00        0.00
  R0019247             JUNCTION     0.00     0.00    69.88     0  00:00        0.00
  R0019719             JUNCTION     0.00     0.00    69.68     0  00:00        0.00
  R0019767             JUNCTION     0.00     0.00    64.73     0  00:00        0.00
  R0019768             JUNCTION     0.00     0.00    63.77     0  00:00        0.00
  R0021453             JUNCTION     0.00     0.00    69.95     0  00:00        0.00
  R0019839             JUNCTION     0.00     0.00    69.39     0  00:00        0.00
  R0019717             JUNCTION     0.00     0.00    69.34     0  00:00        0.00
  R0019252             JUNCTION     0.00     0.00    70.19     0  00:00        0.00
  R0019721             JUNCTION     0.00     0.00    69.87     0  00:00        0.00
  R0019942             JUNCTION     0.00     0.00    68.65     0  00:00        0.00
  R0019206             JUNCTION     0.00     0.00    69.07     0  00:00        0.00
  R0019840             JUNCTION     0.00     0.00    68.97     0  00:00        0.00
  R0043702             JUNCTION     0.00     0.00    68.70     0  00:00        0.00
  R0019723             JUNCTION     0.00     0.00    70.08     0  00:00        0.00
  R0019724             JUNCTION     0.00     0.00    70.16     0  00:00        0.00
  R0021433             JUNCTION     0.00     0.00    70.39     0  00:00        0.00
  R0021435             JUNCTION     0.00     0.00    70.18     0  00:00        0.00
  R0019769             OUTFALL      0.00     0.00    63.38     0  00:00        0.00
  
  
  *******************
  Node Inflow Summary
  *******************
  
  -------------------------------------------------------------------------------------------------
                                  Maximum  Maximum                  Lateral       Total        Flow
                                  Lateral    Total  Time of Max      Inflow      Inflow     Balance
                                   Inflow   Inflow   Occurrence      Volume      Volume       Error
  Node                 Type           CMS      CMS  days hr:min    10^6 ltr    10^6 ltr     Percent
  -------------------------------------------------------------------------------------------------
  R0019466             JUNCTION     0.000    0.000     0  00:00           0           0       0.000 ltr
  R0019468             JUNCTION     0.000    0.000     0  00:00           0           0       0.000 ltr
  R0019831             JUNCTION     0.000    0.000     0  00:00           0           0       0.000 ltr
  R0019825             JUNCTION     0.000    0.000     0  00:00           0           0       0.000 ltr
  R0019843             JUNCTION     0.000    0.000     0  00:00           0           0       0.000 ltr
  R0019368             JUNCTION     0.000    0.000     0  00:00           0           0       0.000 ltr
  R0019369             JUNCTION     0.000    0.000     0  00:00           0           0       0.000 ltr
  R0019370             JUNCTION     0.000    0.000     0  00:00           0           0       0.000 ltr
  R0019345             JUNCTION     0.000    0.000     0  00:00           0           0       0.000 ltr
  R0019346             JUNCTION     0.000    0.000     0  00:00           0           0       0.000 ltr
  R0043600             JUNCTION     0.000    0.000     0  00:00           0           0       0.000 ltr
  R0019203             JUNCTION     0.000    0.000     0  00:00           0           0       0.000 ltr
  R0043594             JUNCTION     0.000    0.000     0  00:00           0           0       0.000 ltr
  R0021458             JUNCTION     0.000    0.000     0  00:00           0           0       0.000 ltr
  R0019202             JUNCTION     0.000    0.000     0  00:00           0           0       0.000 ltr
  R0019373             JUNCTION     0.000    0.000     0  00:00           0           0       0.000 ltr
  R0019254             JUNCTION     0.000    0.000     0  00:00           0           0       0.000 ltr
  R0019716             JUNCTION     0.000    0.000     0  00:00           0           0       0.000 ltr
  R0019946             JUNCTION     0.000    0.000     0  00:00           0           0       0.000 ltr
  R0013935             JUNCTION     0.000    0.000     0  00:00           0           0       0.000 ltr
  R0019939             JUNCTION     0.000    0.000     0  00:00           0           0       0.000 ltr
  R0019944             JUNCTION     0.000    0.000     0  00:00           0           0       0.000 ltr
  R0043703             JUNCTION     0.000    0.000     0  00:00           0           0       0.000 ltr
  R0019945             JUNCTION     0.000    0.000     0  00:00           0           0       0.000 ltr
  R0039621             JUNCTION     0.000    0.000     0  00:00           0           0       0.000 ltr
  R0019838             JUNCTION     0.000    0.000     0  00:00           0           0       0.000 ltr
  R0039606             JUNCTION     0.000    0.000     0  00:00           0           0       0.000 ltr
  R0019204             JUNCTION     0.000    0.000     0  00:00           0           0       0.000 ltr
  R0019205             JUNCTION     0.000    0.000     0  00:00           0           0       0.000 ltr
  R0019849             JUNCTION     0.000    0.000     0  00:00           0           0       0.000 ltr
  R0019371             JUNCTION     0.000    0.000     0  00:00           0           0       0.000 ltr
  R0019718             JUNCTION     0.000    0.000     0  00:00           0           0       0.000 ltr
  R0021442             JUNCTION     0.000    0.000     0  00:00           0           0       0.000 ltr
  R0019247             JUNCTION     0.000    0.000     0  00:00           0           0       0.000 ltr
  R0019719             JUNCTION     0.000    0.000     0  00:00           0           0       0.000 ltr
  R0019767             JUNCTION     0.000    0.000     0  00:00           0           0       0.000 ltr
  R0019768             JUNCTION     0.000    0.000     0  00:00           0           0       0.000 ltr
  R0021453             JUNCTION     0.000    0.000     0  00:00           0           0       0.000 ltr
  R0019839             JUNCTION     0.000    0.000     0  00:00           0           0       0.000 ltr
  R0019717             JUNCTION     0.000    0.000     0  00:00           0           0       0.000 ltr
  R0019252             JUNCTION     0.000    0.000     0  00:00           0           0       0.000 ltr
  R0019721             JUNCTION     0.000    0.000     0  00:00           0           0       0.000 ltr
  R0019942             JUNCTION     0.000    0.000     0  00:00           0           0       0.000 ltr
  R0019206             JUNCTION     0.000    0.000     0  00:00           0           0       0.000 ltr
  R0019840             JUNCTION     0.000    0.000     0  00:00           0           0       0.000 ltr
  R0043702             JUNCTION     0.000    0.000     0  00:00           0           0       0.000 ltr
  R0019723             JUNCTION     0.000    0.000     0  00:00           0           0       0.000 ltr
  R0019724             JUNCTION     0.000    0.000     0  00:00           0           0       0.000 ltr
  R0021433             JUNCTION     0.000    0.000     0  00:00           0           0       0.000 ltr
  R0021435             JUNCTION     0.000    0.000     0  00:00           0           0       0.000 ltr
  R0019769             OUTFALL      0.000    0.000     0  00:00           0           0       0.000 ltr
  
  
  **********************
  Node Surcharge Summary
  **********************
  
  No nodes were surcharged.
  
  
  *********************
  Node Flooding Summary
  *********************
  
  No nodes were flooded.
  
  
  ***********************
  Outfall Loading Summary
  ***********************
  
  -----------------------------------------------------------
                         Flow       Avg       Max       Total
                         Freq      Flow      Flow      Volume
  Outfall Node           Pcnt       CMS       CMS    10^6 ltr
  -----------------------------------------------------------
  R0019769               0.00     0.000     0.000       0.000
  -----------------------------------------------------------
  System                 0.00     0.000     0.000       0.000
  
  
  ********************
  Link Flow Summary
  ********************
  
  -----------------------------------------------------------------------------
                                 Maximum  Time of Max   Maximum    Max/    Max/
                                  |Flow|   Occurrence   |Veloc|    Full    Full
  Link                 Type          CMS  days hr:min     m/sec    Flow   Depth
  -----------------------------------------------------------------------------
  H0014431             CONDUIT     0.000     0  00:00      0.00    0.00    0.00
  H0014433             CONDUIT     0.000     0  00:00      0.00    0.00    0.00
  H0014352             CONDUIT     0.000     0  00:00      0.00    0.00    0.00
  H0014373             CONDUIT     0.000     0  00:00      0.00    0.00    0.00
  H0017981             CONDUIT     0.000     0  00:00      0.00    0.00    0.00
  H0017755             CONDUIT     0.000     0  00:00      0.00    0.00    0.00
  H0017791             CONDUIT     0.000     0  00:00      0.00    0.00    0.00
  H0017357             CONDUIT     0.000     0  00:00      0.00    0.00    0.00
  H0018216             CONDUIT     0.000     0  00:00      0.00    0.00    0.00
  H0016792             CONDUIT     0.000     0  00:00      0.00    0.00    0.00
  H0019507             CONDUIT     0.000     0  00:00      0.00    0.00    0.00
  H0019998             CONDUIT     0.000     0  00:00      0.00    0.00    0.00
  H0019576             CONDUIT     0.000     0  00:00      0.00    0.00    0.00
  H0020087             CONDUIT     0.000     0  00:00      0.00    0.00    0.00
  H0020211             CONDUIT     0.000     0  00:00      0.00    0.00    0.00
  H0018982             CONDUIT     0.000     0  00:00      0.00    0.00    0.00
  H0018753             CONDUIT     0.000     0  00:00      0.00    0.00    0.00
  H0018845             CONDUIT     0.000     0  00:00      0.00    0.00    0.00
  H0018863             CONDUIT     0.000     0  00:00      0.00    0.00    0.00
  H0019156             CONDUIT     0.000     0  00:00      0.00    0.00    0.00
  H0018929             CONDUIT     0.000     0  00:00      0.00    0.00    0.00
  H0018440             CONDUIT     0.000     0  00:00      0.00    0.00    0.00
  H0018456             CONDUIT     0.000     0  00:00      0.00    0.00    0.00
  H0018968             CONDUIT     0.000     0  00:00      0.00    0.00    0.00
  H0022036             CONDUIT     0.000     0  00:00      0.00    0.00    0.00
  H0021806             CONDUIT     0.000     0  00:00      0.00    0.00    0.00
  H0022111             CONDUIT     0.000     0  00:00      0.00    0.00    0.00
  H0021440             CONDUIT     0.000     0  00:00      0.00    0.00    0.00
  H0021704             CONDUIT     0.000     0  00:00      0.00    0.00    0.00
  H0020521             CONDUIT     0.000     0  00:00      0.00    0.00    0.00
  H0020755             CONDUIT     0.000     0  00:00      0.00    0.00    0.00
  H0020530             CONDUIT     0.000     0  00:00      0.00    0.00    0.00
  H0020618             CONDUIT     0.000     0  00:00      0.00    0.00    0.00
  H0021163             CONDUIT     0.000     0  00:00      0.00    0.00    0.00
  H0020497             CONDUIT     0.000     0  00:00      0.00    0.00    0.00
  H0024325             CONDUIT     0.000     0  00:00      0.00    0.00    0.00
  H0023585             CONDUIT     0.000     0  00:00      0.00    0.00    0.00
  H0024098             CONDUIT     0.000     0  00:00      0.00    0.00    0.00
  H0024235             CONDUIT     0.000     0  00:00      0.00    0.00    0.00
  H0024282             CONDUIT     0.000     0  00:00      0.00    0.00    0.00
  H0024308             CONDUIT     0.000     0  00:00      0.00    0.00    0.00
  H0024498             CONDUIT     0.000     0  00:00      0.00    0.00    0.00
  H0026990             CONDUIT     0.000     0  00:00      0.00    0.00    0.00
  H0041650             CONDUIT     0.000     0  00:00      0.00    0.00    0.00
  H0041011             CONDUIT     0.000     0  00:00      0.00    0.00    0.00
  H0045103             CONDUIT     0.000     0  00:00      0.00    0.00    0.00
  H0045104             CONDUIT     0.000     0  00:00      0.00    0.00    0.00
  H0045105             CONDUIT     0.000     0  00:00      0.00    0.00    0.00
  H0045106             CONDUIT     0.000     0  00:00      0.00    0.00    0.00
  H0045107             CONDUIT     0.000     0  00:00      0.00    0.00    0.00
  H0045108             CONDUIT     0.000     0  00:00      0.00    0.00    0.00
  
  
  ***************************
  Flow Classification Summary
  ***************************
  
  -------------------------------------------------------------------------------------
                      Adjusted    ---------- Fraction of Time in Flow Class ---------- 
                       /Actual         Up    Down  Sub   Sup   Up    Down  Norm  Inlet 
  Conduit               Length    Dry  Dry   Dry   Crit  Crit  Crit  Crit  Ltd   Ctrl  
  -------------------------------------------------------------------------------------
  H0014431                1.00   1.00  0.00  0.00  0.00  0.00  0.00  0.00  0.00  0.00
  H0014433                1.00   1.00  0.00  0.00  0.00  0.00  0.00  0.00  0.00  0.00
  H0014352                1.00   1.00  0.00  0.00  0.00  0.00  0.00  0.00  0.00  0.00
  H0014373                1.00   1.00  0.00  0.00  0.00  0.00  0.00  0.00  0.00  0.00
  H0017981                1.00   1.00  0.00  0.00  0.00  0.00  0.00  0.00  0.00  0.00
  H0017755                1.00   1.00  0.00  0.00  0.00  0.00  0.00  0.00  0.00  0.00
  H0017791                1.00   1.00  0.00  0.00  0.00  0.00  0.00  0.00  0.00  0.00
  H0017357                1.00   1.00  0.00  0.00  0.00  0.00  0.00  0.00  0.00  0.00
  H0018216                1.00   1.00  0.00  0.00  0.00  0.00  0.00  0.00  0.00  0.00
  H0016792                1.00   1.00  0.00  0.00  0.00  0.00  0.00  0.00  0.00  0.00
  H0019507                1.00   1.00  0.00  0.00  0.00  0.00  0.00  0.00  0.00  0.00
  H0019998                1.00   1.00  0.00  0.00  0.00  0.00  0.00  0.00  0.00  0.00
  H0019576                1.00   1.00  0.00  0.00  0.00  0.00  0.00  0.00  0.00  0.00
  H0020087                1.00   1.00  0.00  0.00  0.00  0.00  0.00  0.00  0.00  0.00
  H0020211                1.00   1.00  0.00  0.00  0.00  0.00  0.00  0.00  0.00  0.00
  H0018982                1.00   1.00  0.00  0.00  0.00  0.00  0.00  0.00  0.00  0.00
  H0018753                1.00   1.00  0.00  0.00  0.00  0.00  0.00  0.00  0.00  0.00
  H0018845                1.00   1.00  0.00  0.00  0.00  0.00  0.00  0.00  0.00  0.00
  H0018863                1.00   1.00  0.00  0.00  0.00  0.00  0.00  0.00  0.00  0.00
  H0019156                1.00   1.00  0.00  0.00  0.00  0.00  0.00  0.00  0.00  0.00
  H0018929                1.00   1.00  0.00  0.00  0.00  0.00  0.00  0.00  0.00  0.00
  H0018440                1.00   1.00  0.00  0.00  0.00  0.00  0.00  0.00  0.00  0.00
  H0018456                1.00   1.00  0.00  0.00  0.00  0.00  0.00  0.00  0.00  0.00
  H0018968                1.00   1.00  0.00  0.00  0.00  0.00  0.00  0.00  0.00  0.00
  H0022036                1.00   1.00  0.00  0.00  0.00  0.00  0.00  0.00  0.00  0.00
  H0021806                1.00   1.00  0.00  0.00  0.00  0.00  0.00  0.00  0.00  0.00
  H0022111                1.00   1.00  0.00  0.00  0.00  0.00  0.00  0.00  0.00  0.00
  H0021440                1.00   1.00  0.00  0.00  0.00  0.00  0.00  0.00  0.00  0.00
  H0021704                1.00   1.00  0.00  0.00  0.00  0.00  0.00  0.00  0.00  0.00
  H0020521                1.00   1.00  0.00  0.00  0.00  0.00  0.00  0.00  0.00  0.00
  H0020755                1.00   1.00  0.00  0.00  0.00  0.00  0.00  0.00  0.00  0.00
  H0020530                1.00   1.00  0.00  0.00  0.00  0.00  0.00  0.00  0.00  0.00
  H0020618                1.00   1.00  0.00  0.00  0.00  0.00  0.00  0.00  0.00  0.00
  H0021163                1.00   1.00  0.00  0.00  0.00  0.00  0.00  0.00  0.00  0.00
  H0020497                1.20   1.00  0.00  0.00  0.00  0.00  0.00  0.00  0.00  0.00
  H0024325                1.00   1.00  0.00  0.00  0.00  0.00  0.00  0.00  0.00  0.00
  H0023585                1.00   1.00  0.00  0.00  0.00  0.00  0.00  0.00  0.00  0.00
  H0024098                1.00   1.00  0.00  0.00  0.00  0.00  0.00  0.00  0.00  0.00
  H0024235                1.00   1.00  0.00  0.00  0.00  0.00  0.00  0.00  0.00  0.00
  H0024282                1.00   1.00  0.00  0.00  0.00  0.00  0.00  0.00  0.00  0.00
  H0024308                1.00   1.00  0.00  0.00  0.00  0.00  0.00  0.00  0.00  0.00
  H0024498                1.00   1.00  0.00  0.00  0.00  0.00  0.00  0.00  0.00  0.00
  H0026990                1.00   1.00  0.00  0.00  0.00  0.00  0.00  0.00  0.00  0.00
  H0041650                1.00   1.00  0.00  0.00  0.00  0.00  0.00  0.00  0.00  0.00
  H0041011                1.00   1.00  0.00  0.00  0.00  0.00  0.00  0.00  0.00  0.00
  H0045103                1.00   1.00  0.00  0.00  0.00  0.00  0.00  0.00  0.00  0.00
  H0045104                1.00   1.00  0.00  0.00  0.00  0.00  0.00  0.00  0.00  0.00
  H0045105                1.00   1.00  0.00  0.00  0.00  0.00  0.00  0.00  0.00  0.00
  H0045106                1.00   1.00  0.00  0.00  0.00  0.00  0.00  0.00  0.00  0.00
  H0045107                1.00   1.00  0.00  0.00  0.00  0.00  0.00  0.00  0.00  0.00
  H0045108                1.00   1.00  0.00  0.00  0.00  0.00  0.00  0.00  0.00  0.00
  
  
  *************************
  Conduit Surcharge Summary
  *************************
  
  No conduits were surcharged.
  

  Analysis begun on:  Thu Mar 21 16:38:22 2024
  Analysis ended on:  Thu Mar 21 16:38:29 2024
  Total elapsed time: 00:00:07