
  EPA STORM WATER MANAGEMENT MODEL - VERSION 5.2 (Build 5.2.4)
  PYSWMM TOOLKIT API - VERSION v1.0 (2023-11-27)
  ------------------------------------------------------------

  Gievenbeck_2016-07-21 16 35 00_hN28 98 
  
  ****************
  Analysis Options
  ****************
  Flow Units ............... CMS
  Process Models:
    Rainfall/Runoff ........ YES
    RDII ................... NO
    Snowmelt ............... NO
    Groundwater ............ NO
    Flow Routing ........... YES
    Ponding Allowed ........ NO
    Water Quality .......... NO
  Infiltration Method ...... HORTON
  Flow Routing Method ...... DYNWAVE
  Surcharge Method ......... SLOT
  Starting Date ............ 01/01/2024 00:00:00
  Ending Date .............. 01/04/2024 04:00:00
  Antecedent Dry Days ...... 14.0
  Report Time Step ......... 00:01:00
  Wet Time Step ............ 00:01:00
  Dry Time Step ............ 00:01:00
  Routing Time Step ........ 1.00 sec
  Variable Time Step ....... YES
  Maximum Trials ........... 8
  Number of Threads ........ 1
  Head Tolerance ........... 0.001500 m
  
  
  **************************        Volume         Depth
  Runoff Quantity Continuity     hectare-m            mm
  **************************     ---------       -------
  Total Precipitation ......         0.293        28.980
  Evaporation Loss .........         0.010         0.965
  Infiltration Loss ........         0.128        12.613
  Surface Runoff ...........         0.156        15.438
  Final Storage ............         0.000         0.000
  Continuity Error (%) .....        -0.121
  
  
  **************************        Volume        Volume
  Flow Routing Continuity        hectare-m      10^6 ltr
  **************************     ---------     ---------
  Dry Weather Inflow .......         0.000         0.000
  Wet Weather Inflow .......         0.156         1.563
  Groundwater Inflow .......         0.000         0.000
  RDII Inflow ..............         0.000         0.000
  External Inflow ..........         0.000         0.000
  External Outflow .........         0.156         1.563
  Flooding Loss ............         0.000         0.001
  Evaporation Loss .........         0.000         0.000
  Exfiltration Loss ........         0.000         0.000
  Initial Stored Volume ....         0.000         0.000
  Final Stored Volume ......         0.000         0.000
  Continuity Error (%) .....        -0.081
  
  
  *************************
  Highest Continuity Errors
  *************************
  Node R0019718 (-1.55%)
  Node R0019373 (1.54%)
  
  
  ***************************
  Time-Step Critical Elements
  ***************************
  None
  
  
  ********************************
  Highest Flow Instability Indexes
  ********************************
  All links are stable.
  
  
  *********************************
  Most Frequent Nonconverging Nodes
  *********************************
  Convergence obtained at all time steps.
  
  
  *************************
  Routing Time Step Summary
  *************************
  Minimum Time Step           :     0.50 sec
  Average Time Step           :     1.00 sec
  Maximum Time Step           :     1.00 sec
  % of Time in Steady State   :     0.00
  Average Iterations per Step :     2.00
  % of Steps Not Converging   :     0.00
  Time Step Frequencies       :
      1.000 -  0.871 sec      :   100.00 %
      0.871 -  0.758 sec      :     0.00 %
      0.758 -  0.660 sec      :     0.00 %
      0.660 -  0.574 sec      :     0.00 %
      0.574 -  0.500 sec      :     0.00 %
  
  
  ***************************
  Subcatchment Runoff Summary
  ***************************
  
  ------------------------------------------------------------------------------------------------------------------------------
                            Total      Total      Total      Total     Imperv       Perv      Total       Total     Peak  Runoff
                           Precip      Runon       Evap      Infil     Runoff     Runoff     Runoff      Runoff   Runoff   Coeff
  Subcatchment                 mm         mm         mm         mm         mm         mm         mm    10^6 ltr      CMS
  ------------------------------------------------------------------------------------------------------------------------------
  EZG_368                   28.98       0.00       0.96      12.73      13.57       3.79      15.32        0.06     0.07   0.529
  EZG_392                   28.98       0.00       0.95      12.57      13.57       3.96      15.49        0.05     0.06   0.535
  EZG_352                   28.98       0.00       0.97      12.98      13.56       3.54      15.07        0.09     0.10   0.520
  EZG_372                   28.98       0.00       0.94      12.03      13.59       4.51      16.06        0.02     0.03   0.554
  EZG_416                   28.98       0.00       0.95      12.50      13.57       4.03      15.56        0.05     0.05   0.537
  EZG_388                   28.98       0.00       0.96      12.80      13.56       3.72      15.25        0.07     0.08   0.526
  EZG_394                   28.98       0.00       0.95      12.47      13.57       4.06      15.60        0.04     0.05   0.538
  EZG_400                   28.98       0.00       0.95      12.42      13.58       4.11      15.65        0.04     0.05   0.540
  EZG_390                   28.98       0.00       0.95      12.55      13.57       3.97      15.51        0.05     0.06   0.535
  EZG_350                   28.98       0.00       0.96      12.80      13.56       3.72      15.25        0.07     0.08   0.526
  EZG_370                   28.98       0.00       0.96      12.64      13.57       3.89      15.42        0.06     0.06   0.532
  EZG_398                   28.98       0.00       0.94      11.85      13.59       4.68      16.24        0.02     0.02   0.560
  EZG_382                   28.98       0.00       0.94      11.79      13.60       4.75      16.30        0.01     0.02   0.563
  EZG_374                   28.98       0.00       1.15      10.10      16.27       3.93      17.76        0.07     0.08   0.613
  EZG_412                   28.98       0.00       0.93      11.41      13.61       5.14      16.71        0.01     0.01   0.577
  EZG_344                   28.98       0.00       0.95      12.41      13.58       4.12      15.66        0.04     0.05   0.540
  EZG_376                   28.98       0.00       0.95      12.26      13.58       4.27      15.81        0.03     0.04   0.546
  EZG_356                   28.98       0.00       0.97      13.03      13.56       3.48      15.01        0.10     0.11   0.518
  EZG_386                   28.98       0.00       0.97      13.19      13.55       3.33      14.85        0.12     0.13   0.512
  EZG_380                   28.98       0.00       0.96      12.69      13.57       3.83      15.36        0.06     0.07   0.530
  EZG_378                   28.98       0.00       0.96      12.61      13.57       3.92      15.45        0.05     0.06   0.533
  EZG_414                   28.98       0.00       0.94      11.78      13.60       4.75      16.31        0.01     0.02   0.563
  EZG_402                   28.98       0.00       0.95      12.57      13.57       3.95      15.49        0.05     0.06   0.534
  EZG_358                   28.98       0.00       0.97      13.03      13.56       3.49      15.02        0.10     0.10   0.518
  EZG_364                   28.98       0.00       0.97      13.03      13.56       3.49      15.02        0.10     0.10   0.518
  EZG_410                   28.98       0.00       0.95      12.29      13.58       4.24      15.78        0.03     0.04   0.545
  EZG_366                   28.98       0.00       0.95      12.38      13.58       4.15      15.69        0.04     0.04   0.542
  EZG_18259                 28.98       0.00       0.95      12.37      13.58       4.16      15.70        0.04     0.04   0.542
  EZG_18258                 28.98       0.00       0.93      11.60      13.60       4.94      16.50        0.01     0.01   0.569
  EZG_346                   28.98       0.00       0.94      12.91      13.30       3.87      15.17        0.06     0.06   0.524
  EZG_348                   28.98       0.00       0.93      12.58      13.31       4.20      15.51        0.03     0.04   0.535
  
  
  ******************
  Node Depth Summary
  ******************
  
  ---------------------------------------------------------------------------------
                                 Average  Maximum  Maximum  Time of Max    Reported
                                   Depth    Depth      HGL   Occurrence   Max Depth
  Node                 Type       Meters   Meters   Meters  days hr:min      Meters
  ---------------------------------------------------------------------------------
  R0019466             JUNCTION     0.00     0.76    70.21     0  02:25        0.76
  R0019468             JUNCTION     0.00     0.67    69.98     0  02:25        0.67
  R0019831             JUNCTION     0.00     1.15    70.32     0  02:25        1.12
  R0019825             JUNCTION     0.00     1.33    70.17     0  02:25        1.30
  R0019843             JUNCTION     0.00     0.56    68.19     0  02:26        0.56
  R0019368             JUNCTION     0.00     0.78    67.57     0  02:26        0.78
  R0019369             JUNCTION     0.00     0.58    67.17     0  02:26        0.58
  R0019370             JUNCTION     0.00     0.49    66.39     0  02:26        0.49
  R0019345             JUNCTION     0.00     0.46    70.36     0  02:25        0.45
  R0019346             JUNCTION     0.00     0.38    70.18     0  02:25        0.38
  R0043600             JUNCTION     0.00     0.47    70.14     0  02:25        0.47
  R0019203             JUNCTION     0.00     0.47    70.01     0  02:25        0.47
  R0043594             JUNCTION     0.00     0.34    70.07     0  02:25        0.34
  R0021458             JUNCTION     0.00     0.40    70.05     0  02:25        0.40
  R0019202             JUNCTION     0.00     0.44    70.02     0  02:25        0.44
  R0019373             JUNCTION     0.00     0.54    70.21     0  02:25        0.54
  R0019254             JUNCTION     0.00     0.86    70.90     0  02:25        0.85
  R0019716             JUNCTION     0.00     0.52    69.53     0  02:25        0.51
  R0019946             JUNCTION     0.00     0.72    69.34     0  02:26        0.72
  R0013935             JUNCTION     0.00     0.82    69.65     0  02:25        0.81
  R0019939             JUNCTION     0.00     0.98    69.55     0  02:25        0.96
  R0019944             JUNCTION     0.00     0.45    68.73     0  02:26        0.45
  R0043703             JUNCTION     0.00     0.56    69.16     0  02:26        0.56
  R0019945             JUNCTION     0.00     0.57    68.97     0  02:26        0.57
  R0039621             JUNCTION     0.00     0.20    69.77     0  02:25        0.19
  R0019838             JUNCTION     0.00     0.31    69.77     0  02:25        0.30
  R0039606             JUNCTION     0.00     0.43    70.02     0  02:25        0.43
  R0019204             JUNCTION     0.00     0.00    69.91     0  00:00        0.00
  R0019205             JUNCTION     0.00     0.00    69.62     0  00:00        0.00
  R0019849             JUNCTION     0.00     0.92    69.44     0  02:25        0.91
  R0019371             JUNCTION     0.00     0.00    70.41     0  00:00        0.00
  R0019718             JUNCTION     0.00     0.56    69.98     0  02:25        0.55
  R0021442             JUNCTION     0.01     1.99    72.04     0  02:24        1.99
  R0019247             JUNCTION     0.00     0.89    70.77     0  02:25        0.89
  R0019719             JUNCTION     0.00     0.37    70.05     0  02:25        0.37
  R0019767             JUNCTION     0.00     0.52    65.25     0  02:26        0.52
  R0019768             JUNCTION     0.00     0.44    64.21     0  02:26        0.44
  R0021453             JUNCTION     0.00     0.12    70.07     0  02:25        0.12
  R0019839             JUNCTION     0.00     0.28    69.67     0  02:25        0.28
  R0019717             JUNCTION     0.00     0.50    69.84     0  02:25        0.50
  R0019252             JUNCTION     0.00     0.92    71.11     0  02:25        0.90
  R0019721             JUNCTION     0.00     0.34    70.21     0  02:25        0.34
  R0019942             JUNCTION     0.00     0.93    69.58     0  02:25        0.92
  R0019206             JUNCTION     0.00     0.00    69.07     0  00:00        0.00
  R0019840             JUNCTION     0.00     0.26    69.23     0  02:25        0.25
  R0043702             JUNCTION     0.00     0.39    69.09     0  02:25        0.39
  R0019723             JUNCTION     0.00     0.18    70.26     0  02:25        0.18
  R0019724             JUNCTION     0.00     0.11    70.27     0  02:25        0.11
  R0021433             JUNCTION     0.00     2.11    72.50     0  02:24        2.11
  R0021435             JUNCTION     0.01     2.11    72.29     0  02:24        2.11
  R0019769             OUTFALL      0.00     0.44    63.82     0  02:27        0.44
  
  
  *******************
  Node Inflow Summary
  *******************
  
  -------------------------------------------------------------------------------------------------
                                  Maximum  Maximum                  Lateral       Total        Flow
                                  Lateral    Total  Time of Max      Inflow      Inflow     Balance
                                   Inflow   Inflow   Occurrence      Volume      Volume       Error
  Node                 Type           CMS      CMS  days hr:min    10^6 ltr    10^6 ltr     Percent
  -------------------------------------------------------------------------------------------------
  R0019466             JUNCTION     0.071    0.076     0  02:18      0.0633       0.089       0.079
  R0019468             JUNCTION     0.044    0.114     0  02:25      0.0376       0.127      -0.017
  R0019831             JUNCTION     0.057    0.057     0  02:25      0.0502      0.0502       0.018
  R0019825             JUNCTION     0.058    0.112     0  02:25      0.0503         0.1       0.112
  R0019843             JUNCTION     0.000    1.619     0  02:26           0        1.56      -0.008
  R0019368             JUNCTION     0.000    1.621     0  02:26           0        1.56       0.018
  R0019369             JUNCTION     0.000    1.622     0  02:26           0        1.56      -0.016
  R0019370             JUNCTION     0.000    1.621     0  02:26           0        1.56       0.002
  R0019345             JUNCTION     0.000    0.110     0  02:25           0      0.0983       0.031
  R0019346             JUNCTION     0.009    0.184     0  02:25     0.00667       0.167       0.021
  R0043600             JUNCTION     0.000    0.198     0  02:25           0       0.188       0.035
  R0019203             JUNCTION     0.018    0.490     0  02:25      0.0144       0.452      -0.010
  R0043594             JUNCTION     0.098    0.144     0  02:25       0.089       0.129      -0.131
  R0021458             JUNCTION     0.078    0.208     0  02:25        0.07       0.199      -0.009
  R0019202             JUNCTION     0.026    0.280     0  02:25      0.0217       0.249      -0.331
  R0019373             JUNCTION     0.063    0.064     0  02:25      0.0553      0.0554       1.559
  R0019254             JUNCTION     0.052    0.110     0  02:25      0.0453      0.0983       0.008
  R0019716             JUNCTION     0.078    0.959     0  02:25      0.0695       0.901      -0.023
  R0019946             JUNCTION     0.000    0.960     0  02:26           0       0.901       0.016
  R0013935             JUNCTION     0.050    0.050     0  02:25      0.0433      0.0433      -0.016
  R0019939             JUNCTION     0.020    0.068     0  02:25      0.0161      0.0593      -0.025
  R0019944             JUNCTION     0.047    1.216     0  02:26      0.0403        1.15       0.008
  R0043703             JUNCTION     0.056    1.010     0  02:26      0.0491        0.95       0.007
  R0019945             JUNCTION     0.000    1.177     0  02:26           0        1.11      -0.005
  R0039621             JUNCTION     0.000    0.005     0  02:16           0     0.00121       0.947
  R0019838             JUNCTION     0.106    0.106     0  02:25      0.0962      0.0974      -0.014
  R0039606             JUNCTION     0.000    0.202     0  02:26           0       0.199       0.080
  R0019204             JUNCTION     0.000    0.000     0  00:00           0           0       0.000 ltr
  R0019205             JUNCTION     0.000    0.000     0  00:00           0           0       0.000 ltr
  R0019849             JUNCTION     0.000    0.175     0  02:25           0        0.16       0.031
  R0019371             JUNCTION     0.000    0.000     0  00:00           0           0       0.000 ltr
  R0019718             JUNCTION     0.068    0.551     0  02:25      0.0598       0.512      -1.525
  R0021442             JUNCTION     0.077    0.164     0  02:24      0.0673       0.156       0.032
  R0019247             JUNCTION     0.037    0.198     0  02:25      0.0315       0.188      -0.014
  R0019719             JUNCTION     0.039    0.219     0  02:25      0.0331         0.2       0.290
  R0019767             JUNCTION     0.000    1.620     0  02:26           0        1.56      -0.009
  R0019768             JUNCTION     0.000    1.622     0  02:27           0        1.56       0.016
  R0021453             JUNCTION     0.046    0.046     0  02:25      0.0396      0.0396       0.018
  R0019839             JUNCTION     0.104    0.205     0  02:25      0.0951       0.191      -0.013
  R0019717             JUNCTION     0.128    0.888     0  02:25       0.119       0.837       0.713
  R0019252             JUNCTION     0.060    0.060     0  02:25       0.053       0.053      -0.076
  R0019721             JUNCTION     0.018    0.073     0  02:25      0.0142      0.0616       0.009
  R0019942             JUNCTION     0.000    0.109     0  02:25           0         0.1      -0.113
  R0019206             JUNCTION     0.000    0.000     0  00:00           0           0       0.000 ltr
  R0019840             JUNCTION     0.000    0.316     0  02:25           0       0.318       0.011
  R0043702             JUNCTION     0.104    0.416     0  02:25      0.0952       0.413      -0.006
  R0019723             JUNCTION     0.044    0.056     0  02:25      0.0373      0.0474      -0.075
  R0019724             JUNCTION     0.013    0.013     0  02:25      0.0101      0.0101      -0.104
  R0021433             JUNCTION     0.063    0.063     0  02:25      0.0552      0.0552      -0.181
  R0021435             JUNCTION     0.040    0.104     0  02:25      0.0345      0.0898       0.038
  R0019769             OUTFALL      0.000    1.622     0  02:27           0        1.56       0.000
  
  
  **********************
  Node Surcharge Summary
  **********************
  
  Surcharging occurs when water rises above the top of the highest conduit.
  ---------------------------------------------------------------------
                                               Max. Height   Min. Depth
                                   Hours       Above Crown    Below Rim
  Node                 Type      Surcharged         Meters       Meters
  ---------------------------------------------------------------------
  R0019466             JUNCTION        0.27          0.461        2.049
  R0019468             JUNCTION        0.27          0.375        2.055
  R0019831             JUNCTION        0.17          0.849        0.511
  R0019825             JUNCTION        0.22          1.029        0.171
  R0019345             JUNCTION        0.17          0.163        1.587
  R0043600             JUNCTION        0.09          0.069        2.511
  R0019373             JUNCTION        0.18          0.238        2.262
  R0019254             JUNCTION        0.21          0.562        1.268
  R0013935             JUNCTION        0.18          0.523        0.797
  R0019939             JUNCTION        0.26          0.679        0.941
  R0019849             JUNCTION        0.28          0.619        1.311
  R0021442             JUNCTION        0.30          1.693        0.057
  R0019247             JUNCTION        0.19          0.488        1.372
  R0019252             JUNCTION        0.17          0.617        1.023
  R0019942             JUNCTION        0.24          0.632        1.018
  R0021433             JUNCTION        0.24          1.812        0.038
  R0021435             JUNCTION        0.27          1.810        0.000
  
  
  *********************
  Node Flooding Summary
  *********************
  
  Flooding refers to all water that overflows a node, whether it ponds or not.
  --------------------------------------------------------------------------
                                                             Total   Maximum
                                 Maximum   Time of Max       Flood    Ponded
                        Hours       Rate    Occurrence      Volume     Depth
  Node                 Flooded       CMS   days hr:min    10^6 ltr    Meters
  --------------------------------------------------------------------------
  R0021435                0.02     0.021      0  02:25       0.001     0.000
  
  
  ***********************
  Outfall Loading Summary
  ***********************
  
  -----------------------------------------------------------
                         Flow       Avg       Max       Total
                         Freq      Flow      Flow      Volume
  Outfall Node           Pcnt       CMS       CMS    10^6 ltr
  -----------------------------------------------------------
  R0019769               4.04     0.142     1.622       1.563
  -----------------------------------------------------------
  System                 4.04     0.142     1.622       1.563
  
  
  ********************
  Link Flow Summary
  ********************
  
  -----------------------------------------------------------------------------
                                 Maximum  Time of Max   Maximum    Max/    Max/
                                  |Flow|   Occurrence   |Veloc|    Full    Full
  Link                 Type          CMS  days hr:min     m/sec    Flow   Depth
  -----------------------------------------------------------------------------
  H0014431             CONDUIT     0.070     0  02:25      0.99    1.29    1.00
  H0014433             CONDUIT     0.055     0  02:25      0.77    0.70    1.00
  H0014352             CONDUIT     1.621     0  02:26      3.20    0.66    0.74
  H0014373             CONDUIT     1.621     0  02:26      4.11    0.75    0.59
  H0017981             CONDUIT     0.109     0  02:25      1.55    3.10    1.00
  H0017755             CONDUIT     0.198     0  02:25      1.57    1.60    1.00
  H0017791             CONDUIT     0.133     0  02:25      0.60    0.19    0.41
  H0017357             CONDUIT     0.063     0  02:25      0.90    1.01    1.00
  H0018216             CONDUIT     0.110     0  02:25      1.55    1.99    1.00
  H0016792             CONDUIT     0.960     0  02:26      2.07    0.55    0.68
  H0019507             CONDUIT     0.048     0  02:25      0.68    0.67    1.00
  H0019998             CONDUIT     1.217     0  02:26      3.37    0.49    0.56
  H0019576             CONDUIT     1.012     0  02:26      2.42    0.68    0.63
  H0020087             CONDUIT     0.005     0  02:16      0.16    0.02    0.50
  H0020211             CONDUIT     0.963     0  02:26      2.01    2.40    0.71
  H0018982             CONDUIT     0.202     0  02:26      0.78    0.32    0.46
  H0018753             CONDUIT     0.034     0  02:18      0.61    0.49    1.00
  H0018845             CONDUIT     0.000     0  00:00      0.00    0.00    0.00
  H0018863             CONDUIT     0.066     0  02:25      0.94    1.56    1.00
  H0019156             CONDUIT     0.000     0  00:00      0.00    0.00    0.00
  H0018929             CONDUIT     0.490     0  02:25      1.32    0.42    0.57
  H0018440             CONDUIT     0.161     0  02:24      2.27    2.88    1.00
  H0018456             CONDUIT     0.183     0  02:25      1.50    1.11    0.94
  H0018968             CONDUIT     1.622     0  02:27      4.74    0.62    0.53
  H0022036             CONDUIT     0.046     0  02:25      0.51    0.04    0.23
  H0021806             CONDUIT     0.198     0  02:25      1.57    1.75    1.00
  H0022111             CONDUIT     0.102     0  02:25      0.85    0.73    0.59
  H0021440             CONDUIT     0.890     0  02:26      2.43    0.57    0.56
  H0021704             CONDUIT     0.554     0  02:26      1.52    1.06    0.56
  H0020521             CONDUIT     0.059     0  02:25      0.83    1.19    1.00
  H0020755             CONDUIT     0.070     0  02:26      0.61    0.77    0.91
  H0020530             CONDUIT     1.622     0  02:26      3.14    1.39    0.76
  H0020618             CONDUIT     1.177     0  02:26      3.17    0.73    0.57
  H0021163             CONDUIT     0.109     0  02:25      1.55    1.83    1.00
  H0020497             CONDUIT     0.000     0  00:00      0.00    0.00    0.93
  H0024325             CONDUIT     0.204     0  02:25      1.89    0.61    0.54
  H0023585             CONDUIT     0.416     0  02:25      2.53    0.96    0.78
  H0024098             CONDUIT     0.174     0  02:25      2.47    2.03    1.00
  H0024235             CONDUIT     0.219     0  02:25      1.44    0.90    0.72
  H0024282             CONDUIT     0.000     0  00:00      0.00    0.00    0.00
  H0024308             CONDUIT     1.622     0  02:27      5.30    0.48    0.49
  H0024498             CONDUIT     0.113     0  02:25      1.60    1.76    1.00
  H0026990             CONDUIT     0.055     0  02:25      0.69    0.42    0.65
  H0041650             CONDUIT     0.280     0  02:25      0.88    0.33    0.51
  H0041011             CONDUIT     0.109     0  02:25      1.54    1.08    1.00
  H0045103             CONDUIT     0.207     0  02:26      0.76    0.26    0.49
  H0045104             CONDUIT     1.620     0  02:26      4.42    0.57    0.56
  H0045105             CONDUIT     0.013     0  02:25      0.38    0.22    0.48
  H0045106             CONDUIT     0.317     0  02:25      2.36    0.43    0.65
  H0045107             CONDUIT     0.064     0  02:25      0.91    1.05    1.00
  H0045108             CONDUIT     0.091     0  02:26      1.29    1.64    1.00
  
  
  ***************************
  Flow Classification Summary
  ***************************
  
  -------------------------------------------------------------------------------------
                      Adjusted    ---------- Fraction of Time in Flow Class ---------- 
                       /Actual         Up    Down  Sub   Sup   Up    Down  Norm  Inlet 
  Conduit               Length    Dry  Dry   Dry   Crit  Crit  Crit  Crit  Ltd   Ctrl  
  -------------------------------------------------------------------------------------
  H0014431                1.00   0.03  0.00  0.00  0.97  0.00  0.00  0.00  0.97  0.00
  H0014433                1.00   0.03  0.00  0.00  0.97  0.00  0.00  0.00  0.97  0.00
  H0014352                1.00   0.03  0.00  0.00  0.95  0.02  0.00  0.00  0.97  0.00
  H0014373                1.00   0.03  0.00  0.00  0.94  0.03  0.00  0.00  0.92  0.00
  H0017981                1.00   0.03  0.00  0.00  0.00  0.00  0.00  0.97  0.00  0.00
  H0017755                1.00   0.03  0.00  0.00  0.00  0.00  0.00  0.97  0.00  0.00
  H0017791                1.00   0.03  0.00  0.00  0.97  0.00  0.00  0.00  0.97  0.00
  H0017357                1.00   0.03  0.97  0.00  0.00  0.00  0.00  0.00  0.97  0.00
  H0018216                1.00   0.03  0.93  0.00  0.04  0.00  0.00  0.00  0.97  0.00
  H0016792                1.00   0.03  0.92  0.00  0.05  0.00  0.00  0.00  0.97  0.00
  H0019507                1.00   0.03  0.00  0.00  0.97  0.00  0.00  0.00  0.97  0.00
  H0019998                1.00   0.03  0.00  0.00  0.94  0.03  0.00  0.00  0.05  0.00
  H0019576                1.00   0.03  0.00  0.00  0.96  0.01  0.00  0.00  0.05  0.00
  H0020087                1.00   0.03  0.96  0.00  0.01  0.00  0.00  0.00  0.97  0.00
  H0020211                1.00   0.03  0.00  0.00  0.97  0.00  0.00  0.00  0.92  0.00
  H0018982                1.00   0.03  0.00  0.00  0.97  0.00  0.00  0.00  0.94  0.00
  H0018753                1.00   0.03  0.00  0.00  0.97  0.00  0.00  0.00  0.97  0.00
  H0018845                1.00   1.00  0.00  0.00  0.00  0.00  0.00  0.00  0.00  0.00
  H0018863                1.00   0.03  0.00  0.00  0.97  0.00  0.00  0.00  0.96  0.00
  H0019156                1.00   1.00  0.00  0.00  0.00  0.00  0.00  0.00  0.00  0.00
  H0018929                1.00   0.03  0.93  0.00  0.04  0.00  0.00  0.00  0.97  0.00
  H0018440                1.00   0.03  0.00  0.00  0.97  0.00  0.00  0.00  0.97  0.00
  H0018456                1.00   0.03  0.00  0.00  0.97  0.00  0.00  0.00  0.97  0.00
  H0018968                1.00   0.03  0.92  0.00  0.02  0.04  0.00  0.00  0.94  0.00
  H0022036                1.00   0.03  0.00  0.00  0.01  0.00  0.00  0.96  0.01  0.00
  H0021806                1.00   0.03  0.93  0.00  0.04  0.00  0.00  0.00  0.97  0.00
  H0022111                1.00   0.03  0.00  0.00  0.97  0.00  0.00  0.00  0.00  0.00
  H0021440                1.00   0.03  0.00  0.00  0.95  0.02  0.00  0.00  0.02  0.00
  H0021704                1.00   0.03  0.00  0.00  0.00  0.00  0.00  0.97  0.00  0.00
  H0020521                1.00   0.03  0.00  0.00  0.97  0.00  0.00  0.00  0.97  0.00
  H0020755                1.00   0.03  0.94  0.00  0.03  0.00  0.00  0.00  0.97  0.00
  H0020530                1.00   0.03  0.00  0.00  0.96  0.02  0.00  0.00  0.00  0.00
  H0020618                1.00   0.03  0.00  0.00  0.95  0.03  0.00  0.00  0.93  0.00
  H0021163                1.00   0.03  0.00  0.00  0.97  0.00  0.00  0.00  0.94  0.00
  H0020497                1.20   0.03  0.97  0.00  0.00  0.00  0.00  0.00  0.00  0.00
  H0024325                1.00   0.03  0.00  0.00  0.95  0.02  0.00  0.00  0.94  0.00
  H0023585                1.00   0.03  0.00  0.00  0.00  0.00  0.00  0.97  0.00  0.00
  H0024098                1.00   0.03  0.93  0.00  0.04  0.00  0.00  0.00  0.97  0.00
  H0024235                1.00   0.03  0.00  0.00  0.00  0.00  0.00  0.97  0.00  0.00
  H0024282                1.00   1.00  0.00  0.00  0.00  0.00  0.00  0.00  0.00  0.00
  H0024308                1.00   0.03  0.00  0.00  0.92  0.05  0.00  0.00  0.01  0.00
  H0024498                1.00   0.03  0.00  0.00  0.00  0.00  0.00  0.97  0.00  0.00
  H0026990                1.00   0.03  0.00  0.00  0.97  0.00  0.00  0.00  0.97  0.00
  H0041650                1.00   0.96  0.01  0.00  0.03  0.00  0.00  0.00  0.96  0.00
  H0041011                1.00   0.03  0.00  0.00  0.97  0.00  0.00  0.00  0.97  0.00
  H0045103                1.00   0.03  0.00  0.00  0.97  0.00  0.00  0.00  0.95  0.00
  H0045104                1.00   0.03  0.00  0.00  0.93  0.04  0.00  0.00  0.05  0.00
  H0045105                1.00   0.03  0.00  0.00  0.97  0.00  0.00  0.00  0.97  0.00
  H0045106                1.00   0.03  0.93  0.00  0.02  0.02  0.00  0.00  0.97  0.00
  H0045107                1.00   0.03  0.00  0.00  0.97  0.00  0.00  0.00  0.97  0.00
  H0045108                1.00   0.03  0.00  0.00  0.97  0.00  0.00  0.00  0.97  0.00
  
  
  *************************
  Conduit Surcharge Summary
  *************************
  
  ----------------------------------------------------------------------------
                                                           Hours        Hours 
                         --------- Hours Full --------   Above Full   Capacity
  Conduit                Both Ends  Upstream  Dnstream   Normal Flow   Limited
  ----------------------------------------------------------------------------
  H0014431                    0.27      0.27      0.27      0.30         0.27
  H0014433                    0.17      0.17      0.22      0.01         0.01
  H0017981                    0.01      0.17      0.01      0.31         0.10
  H0017755                    0.01      0.09      0.01      0.21         0.06
  H0017357                    0.01      0.01      0.18      0.01         0.01
  H0018216                    0.17      0.21      0.17      0.25         0.19
  H0019507                    0.18      0.18      0.26      0.01         0.01
  H0020211                    0.01      0.01      0.01      0.28         0.01
  H0018753                    0.18      0.18      0.27      0.01         0.01
  H0018863                    0.26      0.26      0.28      0.17         0.17
  H0018440                    0.24      0.30      0.24      0.33         0.28
  H0018456                    0.01      0.01      0.01      0.06         0.01
  H0021806                    0.09      0.19      0.09      0.22         0.16
  H0021704                    0.01      0.01      0.01      0.05         0.01
  H0020521                    0.17      0.17      0.21      0.08         0.07
  H0020530                    0.01      0.01      0.01      0.17         0.01
  H0021163                    0.22      0.22      0.24      0.24         0.21
  H0024098                    0.28      0.28      0.31      0.25         0.23
  H0024498                    0.01      0.27      0.01      0.31         0.23
  H0041011                    0.24      0.24      0.28      0.04         0.03
  H0045107                    0.24      0.24      0.27      0.01         0.01
  H0045108                    0.27      0.27      0.30      0.22         0.22
  

  Analysis begun on:  Fri Mar 22 15:54:50 2024
  Analysis ended on:  Fri Mar 22 15:54:59 2024
  Total elapsed time: 00:00:09