
  EPA STORM WATER MANAGEMENT MODEL - VERSION 5.2 (Build 5.2.4)
  PYSWMM TOOLKIT API - VERSION v1.0 (2023-11-27)
  ------------------------------------------------------------

  Gievenbeck_2016-01-14 11 20 00_hN1 96 
  
  ****************
  Analysis Options
  ****************
  Flow Units ............... CMS
  Process Models:
    Rainfall/Runoff ........ YES
    RDII ................... NO
    Snowmelt ............... NO
    Groundwater ............ NO
    Flow Routing ........... YES
    Ponding Allowed ........ NO
    Water Quality .......... NO
  Infiltration Method ...... HORTON
  Flow Routing Method ...... DYNWAVE
  Surcharge Method ......... SLOT
  Starting Date ............ 01/01/2024 00:00:00
  Ending Date .............. 01/08/2024 04:00:00
  Antecedent Dry Days ...... 14.0
  Report Time Step ......... 00:01:00
  Wet Time Step ............ 00:01:00
  Dry Time Step ............ 00:01:00
  Routing Time Step ........ 1.00 sec
  Variable Time Step ....... YES
  Maximum Trials ........... 8
  Number of Threads ........ 1
  Head Tolerance ........... 0.001500 m
  
  
  **************************        Volume         Depth
  Runoff Quantity Continuity     hectare-m            mm
  **************************     ---------       -------
  Total Precipitation ......         0.020         1.960
  Evaporation Loss .........         0.010         0.955
  Infiltration Loss ........         0.010         0.978
  Surface Runoff ...........         0.000         0.027
  Final Storage ............         0.000         0.000
  Continuity Error (%) .....         0.000
  
  
  **************************        Volume        Volume
  Flow Routing Continuity        hectare-m      10^6 ltr
  **************************     ---------     ---------
  Dry Weather Inflow .......         0.000         0.000
  Wet Weather Inflow .......         0.000         0.003
  Groundwater Inflow .......         0.000         0.000
  RDII Inflow ..............         0.000         0.000
  External Inflow ..........         0.000         0.000
  External Outflow .........         0.000         0.003
  Flooding Loss ............         0.000         0.000
  Evaporation Loss .........         0.000         0.000
  Exfiltration Loss ........         0.000         0.000
  Initial Stored Volume ....         0.000         0.000
  Final Stored Volume ......         0.000         0.000
  Continuity Error (%) .....         0.000
  
  
  *************************
  Highest Continuity Errors
  *************************
  Node R0019345 (2.50%)
  Node R0019254 (-1.90%)
  Node R0043600 (1.82%)
  Node R0019247 (-1.46%)
  Node R0043594 (-1.00%)
  
  
  ***************************
  Time-Step Critical Elements
  ***************************
  None
  
  
  ********************************
  Highest Flow Instability Indexes
  ********************************
  All links are stable.
  
  
  *********************************
  Most Frequent Nonconverging Nodes
  *********************************
  Convergence obtained at all time steps.
  
  
  *************************
  Routing Time Step Summary
  *************************
  Minimum Time Step           :     0.50 sec
  Average Time Step           :     1.00 sec
  Maximum Time Step           :     1.00 sec
  % of Time in Steady State   :     0.00
  Average Iterations per Step :     2.00
  % of Steps Not Converging   :     0.00
  Time Step Frequencies       :
      1.000 -  0.871 sec      :   100.00 %
      0.871 -  0.758 sec      :     0.00 %
      0.758 -  0.660 sec      :     0.00 %
      0.660 -  0.574 sec      :     0.00 %
      0.574 -  0.500 sec      :     0.00 %
  
  
  ***************************
  Subcatchment Runoff Summary
  ***************************
  
  ------------------------------------------------------------------------------------------------------------------------------
                            Total      Total      Total      Total     Imperv       Perv      Total       Total     Peak  Runoff
                           Precip      Runon       Evap      Infil     Runoff     Runoff     Runoff      Runoff   Runoff   Coeff
  Subcatchment                 mm         mm         mm         mm         mm         mm         mm    10^6 ltr      CMS
  ------------------------------------------------------------------------------------------------------------------------------
  EZG_368                    1.96       0.00       0.95       0.98       0.03       0.00       0.03        0.00     0.00   0.013
  EZG_392                    1.96       0.00       0.95       0.98       0.03       0.00       0.03        0.00     0.00   0.014
  EZG_352                    1.96       0.00       0.95       0.98       0.03       0.00       0.02        0.00     0.00   0.012
  EZG_372                    1.96       0.00       0.94       0.99       0.04       0.00       0.03        0.00     0.00   0.016
  EZG_416                    1.96       0.00       0.95       0.98       0.03       0.00       0.03        0.00     0.00   0.014
  EZG_388                    1.96       0.00       0.95       0.98       0.03       0.00       0.03        0.00     0.00   0.013
  EZG_394                    1.96       0.00       0.95       0.98       0.03       0.00       0.03        0.00     0.00   0.014
  EZG_400                    1.96       0.00       0.95       0.99       0.03       0.00       0.03        0.00     0.00   0.015
  EZG_390                    1.96       0.00       0.95       0.98       0.03       0.00       0.03        0.00     0.00   0.014
  EZG_350                    1.96       0.00       0.95       0.98       0.03       0.00       0.03        0.00     0.00   0.013
  EZG_370                    1.96       0.00       0.95       0.98       0.03       0.00       0.03        0.00     0.00   0.014
  EZG_398                    1.96       0.00       0.94       0.99       0.04       0.00       0.03        0.00     0.00   0.017
  EZG_382                    1.96       0.00       0.94       0.99       0.04       0.00       0.03        0.00     0.00   0.017
  EZG_374                    1.96       0.00       1.14       0.79       0.04       0.00       0.03        0.00     0.00   0.015
  EZG_412                    1.96       0.00       0.94       0.99       0.04       0.00       0.04        0.00     0.00   0.019
  EZG_344                    1.96       0.00       0.95       0.99       0.03       0.00       0.03        0.00     0.00   0.015
  EZG_376                    1.96       0.00       0.94       0.99       0.04       0.00       0.03        0.00     0.00   0.015
  EZG_356                    1.96       0.00       0.95       0.98       0.03       0.00       0.02        0.00     0.00   0.012
  EZG_386                    1.96       0.00       0.95       0.98       0.03       0.00       0.02        0.00     0.00   0.012
  EZG_380                    1.96       0.00       0.95       0.98       0.03       0.00       0.03        0.00     0.00   0.014
  EZG_378                    1.96       0.00       0.95       0.98       0.03       0.00       0.03        0.00     0.00   0.014
  EZG_414                    1.96       0.00       0.94       0.99       0.04       0.00       0.03        0.00     0.00   0.017
  EZG_402                    1.96       0.00       0.95       0.98       0.03       0.00       0.03        0.00     0.00   0.014
  EZG_358                    1.96       0.00       0.95       0.98       0.03       0.00       0.02        0.00     0.00   0.012
  EZG_364                    1.96       0.00       0.95       0.98       0.03       0.00       0.02        0.00     0.00   0.012
  EZG_410                    1.96       0.00       0.95       0.99       0.03       0.00       0.03        0.00     0.00   0.015
  EZG_366                    1.96       0.00       0.95       0.99       0.03       0.00       0.03        0.00     0.00   0.015
  EZG_18259                  1.96       0.00       0.95       0.99       0.03       0.00       0.03        0.00     0.00   0.015
  EZG_18258                  1.96       0.00       0.94       0.99       0.04       0.00       0.04        0.00     0.00   0.018
  EZG_346                    1.96       0.00       0.93       1.00       0.03       0.00       0.03        0.00     0.00   0.014
  EZG_348                    1.96       0.00       0.93       1.00       0.03       0.00       0.03        0.00     0.00   0.015
  
  
  ******************
  Node Depth Summary
  ******************
  
  ---------------------------------------------------------------------------------
                                 Average  Maximum  Maximum  Time of Max    Reported
                                   Depth    Depth      HGL   Occurrence   Max Depth
  Node                 Type       Meters   Meters   Meters  days hr:min      Meters
  ---------------------------------------------------------------------------------
  R0019466             JUNCTION     0.00     0.01    69.46     0  04:36        0.01
  R0019468             JUNCTION     0.00     0.01    69.32     0  04:40        0.01
  R0019831             JUNCTION     0.00     0.01    69.18     0  04:34        0.01
  R0019825             JUNCTION     0.00     0.01    68.85     0  04:36        0.01
  R0019843             JUNCTION     0.00     0.01    67.64     0  04:45        0.01
  R0019368             JUNCTION     0.00     0.02    66.81     0  04:48        0.02
  R0019369             JUNCTION     0.00     0.01    66.60     0  04:49        0.01
  R0019370             JUNCTION     0.00     0.01    65.91     0  04:51        0.01
  R0019345             JUNCTION     0.00     0.02    69.92     0  04:44        0.02
  R0019346             JUNCTION     0.00     0.01    69.81     0  04:43        0.01
  R0043600             JUNCTION     0.00     0.01    69.68     0  04:46        0.01
  R0019203             JUNCTION     0.00     0.01    69.55     0  04:47        0.01
  R0043594             JUNCTION     0.00     0.01    69.74     0  04:36        0.01
  R0021458             JUNCTION     0.00     0.01    69.66     0  04:39        0.01
  R0019202             JUNCTION     0.00     0.01    69.59     0  04:44        0.01
  R0019373             JUNCTION     0.00     0.01    69.68     0  04:35        0.01
  R0019254             JUNCTION     0.00     0.01    70.05     0  04:35        0.01
  R0019716             JUNCTION     0.00     0.01    69.02     0  04:54        0.01
  R0019946             JUNCTION     0.00     0.03    68.65     0  04:58        0.03
  R0013935             JUNCTION     0.00     0.01    68.84     0  04:34        0.01
  R0019939             JUNCTION     0.00     0.01    68.58     0  04:34        0.01
  R0019944             JUNCTION     0.00     0.01    68.29     0  04:59        0.01
  R0043703             JUNCTION     0.00     0.01    68.61     0  05:00        0.01
  R0019945             JUNCTION     0.00     0.01    68.41     0  04:59        0.01
  R0039621             JUNCTION     0.00     0.00    69.57     0  00:00        0.00
  R0019838             JUNCTION     0.00     0.01    69.47     0  04:37        0.01
  R0039606             JUNCTION     0.00     0.01    69.60     0  04:44        0.01
  R0019204             JUNCTION     0.00     0.00    69.91     0  00:00        0.00
  R0019205             JUNCTION     0.00     0.00    69.62     0  00:00        0.00
  R0019849             JUNCTION     0.00     0.01    68.53     0  04:38        0.01
  R0019371             JUNCTION     0.00     0.00    70.41     0  00:00        0.00
  R0019718             JUNCTION     0.00     0.03    69.45     0  04:56        0.03
  R0021442             JUNCTION     0.00     0.01    70.06     0  04:38        0.01
  R0019247             JUNCTION     0.00     0.01    69.89     0  04:40        0.01
  R0019719             JUNCTION     0.00     0.01    69.69     0  04:46        0.01
  R0019767             JUNCTION     0.00     0.01    64.74     0  04:52        0.01
  R0019768             JUNCTION     0.00     0.01    63.78     0  04:53        0.01
  R0021453             JUNCTION     0.00     0.01    69.96     0  04:33        0.01
  R0019839             JUNCTION     0.00     0.01    69.40     0  04:37        0.01
  R0019717             JUNCTION     0.00     0.01    69.35     0  04:52        0.01
  R0019252             JUNCTION     0.00     0.01    70.20     0  04:35        0.01
  R0019721             JUNCTION     0.00     0.01    69.88     0  04:37        0.01
  R0019942             JUNCTION     0.00     0.01    68.66     0  04:39        0.01
  R0019206             JUNCTION     0.00     0.00    69.07     0  00:00        0.00
  R0019840             JUNCTION     0.00     0.01    68.98     0  04:40        0.01
  R0043702             JUNCTION     0.00     0.01    68.71     0  04:40        0.01
  R0019723             JUNCTION     0.00     0.01    70.09     0  04:35        0.01
  R0019724             JUNCTION     0.00     0.00    70.16     0  04:32        0.00
  R0021433             JUNCTION     0.00     0.01    70.40     0  04:35        0.01
  R0021435             JUNCTION     0.00     0.01    70.19     0  04:37        0.01
  R0019769             OUTFALL      0.00     0.01    63.39     0  04:53        0.01
  
  
  *******************
  Node Inflow Summary
  *******************
  
  -------------------------------------------------------------------------------------------------
                                  Maximum  Maximum                  Lateral       Total        Flow
                                  Lateral    Total  Time of Max      Inflow      Inflow     Balance
                                   Inflow   Inflow   Occurrence      Volume      Volume       Error
  Node                 Type           CMS      CMS  days hr:min    10^6 ltr    10^6 ltr     Percent
  -------------------------------------------------------------------------------------------------
  R0019466             JUNCTION     0.000    0.000     0  04:35    0.000108    0.000205      -0.329
  R0019468             JUNCTION     0.000    0.000     0  04:35    6.92e-05    0.000275       0.765
  R0019831             JUNCTION     0.000    0.000     0  04:30    8.89e-05    8.89e-05      -0.525
  R0019825             JUNCTION     0.000    0.000     0  04:33    8.91e-05    0.000178      -0.012
  R0019843             JUNCTION     0.000    0.001     0  04:44           0     0.00269      -0.113
  R0019368             JUNCTION     0.000    0.001     0  04:45           0     0.00269       0.021
  R0019369             JUNCTION     0.000    0.001     0  04:48           0     0.00269       0.036
  R0019370             JUNCTION     0.000    0.001     0  04:50           0     0.00269       0.015
  R0019345             JUNCTION     0.000    0.000     0  04:35           0    0.000178       2.559
  R0019346             JUNCTION     0.000    0.000     0  04:40    1.47e-05    0.000309       0.492
  R0043600             JUNCTION     0.000    0.000     0  04:43           0    0.000338       1.850
  R0019203             JUNCTION     0.000    0.000     0  04:45    2.96e-05    0.000739      -0.562
  R0043594             JUNCTION     0.000    0.000     0  04:33    0.000144    0.000216      -0.990
  R0021458             JUNCTION     0.000    0.000     0  04:35    0.000118    0.000337      -0.196
  R0019202             JUNCTION     0.000    0.000     0  04:43    4.28e-05    0.000377      -0.097
  R0019373             JUNCTION     0.000    0.000     0  04:30    9.66e-05    9.66e-05      -0.314
  R0019254             JUNCTION     0.000    0.000     0  04:35    8.15e-05    0.000175      -1.868
  R0019716             JUNCTION     0.000    0.000     0  04:52    0.000117     0.00151      -0.418
  R0019946             JUNCTION     0.000    0.000     0  04:54           0     0.00152       0.536
  R0013935             JUNCTION     0.000    0.000     0  04:30    7.82e-05    7.82e-05      -0.360
  R0019939             JUNCTION     0.000    0.000     0  04:32    3.27e-05    0.000111      -0.299
  R0019944             JUNCTION     0.000    0.001     0  04:58    7.36e-05     0.00196       0.040
  R0043703             JUNCTION     0.000    0.000     0  04:58    8.72e-05     0.00159      -0.059
  R0019945             JUNCTION     0.000    0.001     0  04:58           0     0.00188       0.036
  R0039621             JUNCTION     0.000    0.000     0  00:00           0           0       0.000 ltr
  R0019838             JUNCTION     0.000    0.000     0  04:35    0.000154    0.000154       0.348
  R0039606             JUNCTION     0.000    0.000     0  04:41           0    0.000337       0.857
  R0019204             JUNCTION     0.000    0.000     0  00:00           0           0       0.000 ltr
  R0019205             JUNCTION     0.000    0.000     0  00:00           0           0       0.000 ltr
  R0019849             JUNCTION     0.000    0.000     0  04:37           0    0.000289       0.150
  R0019371             JUNCTION     0.000    0.000     0  00:00           0           0       0.000 ltr
  R0019718             JUNCTION     0.000    0.000     0  04:46    0.000103    0.000846       0.707
  R0021442             JUNCTION     0.000    0.000     0  04:35    0.000113    0.000273      -0.105
  R0019247             JUNCTION     0.000    0.000     0  04:36    5.94e-05    0.000333      -1.438
  R0019719             JUNCTION     0.000    0.000     0  04:42    6.21e-05    0.000369       0.138
  R0019767             JUNCTION     0.000    0.001     0  04:51           0     0.00269       0.009
  R0019768             JUNCTION     0.000    0.001     0  04:53           0     0.00269       0.026
  R0021453             JUNCTION     0.000    0.000     0  04:30    7.25e-05    7.25e-05       0.260
  R0019839             JUNCTION     0.000    0.000     0  04:35    0.000152    0.000306      -0.478
  R0019717             JUNCTION     0.000    0.000     0  04:51    0.000183     0.00139       0.021
  R0019252             JUNCTION     0.000    0.000     0  04:30    9.31e-05    9.31e-05      -0.351
  R0019721             JUNCTION     0.000    0.000     0  04:35    2.92e-05     0.00012      -0.386
  R0019942             JUNCTION     0.000    0.000     0  04:37           0    0.000178       0.457
  R0019206             JUNCTION     0.000    0.000     0  00:00           0           0       0.000 ltr
  R0019840             JUNCTION     0.000    0.000     0  04:39           0     0.00058       0.158
  R0043702             JUNCTION     0.000    0.000     0  04:38    0.000152    0.000732       0.064
  R0019723             JUNCTION     0.000    0.000     0  04:30    6.88e-05    9.01e-05      -0.809
  R0019724             JUNCTION     0.000    0.000     0  04:30    2.15e-05    2.15e-05       0.191 ltr
  R0021433             JUNCTION     0.000    0.000     0  04:30    9.65e-05    9.65e-05      -0.553
  R0021435             JUNCTION     0.000    0.000     0  04:33    6.42e-05    0.000161       0.457
  R0019769             OUTFALL      0.000    0.001     0  04:53           0     0.00269       0.000
  
  
  **********************
  Node Surcharge Summary
  **********************
  
  No nodes were surcharged.
  
  
  *********************
  Node Flooding Summary
  *********************
  
  No nodes were flooded.
  
  
  ***********************
  Outfall Loading Summary
  ***********************
  
  -----------------------------------------------------------
                         Flow       Avg       Max       Total
                         Freq      Flow      Flow      Volume
  Outfall Node           Pcnt       CMS       CMS    10^6 ltr
  -----------------------------------------------------------
  R0019769               1.22     0.000     0.001       0.003
  -----------------------------------------------------------
  System                 1.22     0.000     0.001       0.003
  
  
  ********************
  Link Flow Summary
  ********************
  
  -----------------------------------------------------------------------------
                                 Maximum  Time of Max   Maximum    Max/    Max/
                                  |Flow|   Occurrence   |Veloc|    Full    Full
  Link                 Type          CMS  days hr:min     m/sec    Flow   Depth
  -----------------------------------------------------------------------------
  H0014431             CONDUIT     0.000     0  04:36      0.15    0.00    0.04
  H0014433             CONDUIT     0.000     0  04:34      0.11    0.00    0.03
  H0014352             CONDUIT     0.001     0  04:45      0.32    0.00    0.02
  H0014373             CONDUIT     0.001     0  04:50      0.43    0.00    0.01
  H0017981             CONDUIT     0.000     0  04:44      0.12    0.00    0.03
  H0017755             CONDUIT     0.000     0  04:46      0.26    0.00    0.02
  H0017791             CONDUIT     0.000     0  04:36      0.09    0.00    0.01
  H0017357             CONDUIT     0.000     0  00:00      0.00    0.00    0.01
  H0018216             CONDUIT     0.000     0  04:35      0.15    0.00    0.04
  H0016792             CONDUIT     0.000     0  04:54      0.16    0.00    0.02
  H0019507             CONDUIT     0.000     0  04:34      0.11    0.00    0.03
  H0019998             CONDUIT     0.001     0  04:59      0.36    0.00    0.01
  H0019576             CONDUIT     0.000     0  05:00      0.26    0.00    0.01
  H0020087             CONDUIT     0.000     0  00:00      0.00    0.00    0.01
  H0020211             CONDUIT     0.000     0  04:59      0.13    0.00    0.02
  H0018982             CONDUIT     0.000     0  04:41      0.11    0.00    0.01
  H0018753             CONDUIT     0.000     0  04:35      0.10    0.00    0.03
  H0018845             CONDUIT     0.000     0  00:00      0.00    0.00    0.00
  H0018863             CONDUIT     0.000     0  04:35      0.12    0.00    0.03
  H0019156             CONDUIT     0.000     0  00:00      0.00    0.00    0.00
  H0018929             CONDUIT     0.000     0  04:47      0.13    0.00    0.02
  H0018440             CONDUIT     0.000     0  04:38      0.16    0.00    0.04
  H0018456             CONDUIT     0.000     0  04:43      0.18    0.00    0.03
  H0018968             CONDUIT     0.001     0  04:53      0.48    0.00    0.01
  H0022036             CONDUIT     0.000     0  04:34      0.00    0.00    0.00
  H0021806             CONDUIT     0.000     0  04:43      0.17    0.00    0.03
  H0022111             CONDUIT     0.000     0  04:37      0.10    0.00    0.02
  H0021440             CONDUIT     0.000     0  04:52      0.28    0.00    0.01
  H0021704             CONDUIT     0.000     0  04:57      0.13    0.00    0.02
  H0020521             CONDUIT     0.000     0  04:35      0.10    0.00    0.03
  H0020755             CONDUIT     0.000     0  04:40      0.11    0.00    0.02
  H0020530             CONDUIT     0.001     0  04:48      0.30    0.00    0.02
  H0020618             CONDUIT     0.001     0  04:59      0.33    0.00    0.01
  H0021163             CONDUIT     0.000     0  04:37      0.17    0.00    0.03
  H0020497             CONDUIT     0.000     0  00:00      0.00    0.00    0.02
  H0024325             CONDUIT     0.000     0  04:37      0.23    0.00    0.02
  H0023585             CONDUIT     0.000     0  04:40      0.41    0.00    0.02
  H0024098             CONDUIT     0.000     0  04:38      0.23    0.00    0.04
  H0024235             CONDUIT     0.000     0  04:46      0.27    0.00    0.01
  H0024282             CONDUIT     0.000     0  00:00      0.00    0.00    0.00
  H0024308             CONDUIT     0.001     0  04:53      0.67    0.00    0.01
  H0024498             CONDUIT     0.000     0  04:40      0.23    0.00    0.03
  H0026990             CONDUIT     0.000     0  04:35      0.11    0.00    0.02
  H0041650             CONDUIT     0.000     0  04:44      0.13    0.00    0.01
  H0041011             CONDUIT     0.000     0  04:39      0.18    0.00    0.03
  H0045103             CONDUIT     0.000     0  04:44      0.13    0.00    0.01
  H0045104             CONDUIT     0.001     0  04:51      0.47    0.00    0.01
  H0045105             CONDUIT     0.000     0  04:32      0.06    0.00    0.02
  H0045106             CONDUIT     0.000     0  04:40      0.33    0.00    0.02
  H0045107             CONDUIT     0.000     0  04:35      0.12    0.00    0.03
  H0045108             CONDUIT     0.000     0  04:37      0.13    0.00    0.03
  
  
  ***************************
  Flow Classification Summary
  ***************************
  
  -------------------------------------------------------------------------------------
                      Adjusted    ---------- Fraction of Time in Flow Class ---------- 
                       /Actual         Up    Down  Sub   Sup   Up    Down  Norm  Inlet 
  Conduit               Length    Dry  Dry   Dry   Crit  Crit  Crit  Crit  Ltd   Ctrl  
  -------------------------------------------------------------------------------------
  H0014431                1.00   0.02  0.00  0.00  0.98  0.00  0.00  0.00  0.97  0.00
  H0014433                1.00   0.02  0.00  0.00  0.98  0.00  0.00  0.00  0.98  0.00
  H0014352                1.00   0.02  0.00  0.00  0.97  0.00  0.00  0.00  0.97  0.00
  H0014373                1.00   0.03  0.00  0.00  0.97  0.01  0.00  0.00  0.96  0.00
  H0017981                1.00   0.03  0.00  0.00  0.00  0.00  0.00  0.97  0.00  0.00
  H0017755                1.00   0.03  0.00  0.00  0.00  0.00  0.00  0.97  0.00  0.00
  H0017791                1.00   0.02  0.00  0.00  0.98  0.00  0.00  0.00  0.98  0.00
  H0017357                1.00   0.02  0.98  0.00  0.00  0.00  0.00  0.00  0.00  0.00
  H0018216                1.00   0.02  0.96  0.00  0.01  0.00  0.00  0.00  0.97  0.00
  H0016792                1.00   0.02  0.96  0.00  0.02  0.00  0.00  0.00  0.97  0.00
  H0019507                1.00   0.02  0.00  0.00  0.98  0.00  0.00  0.00  0.97  0.00
  H0019998                1.00   0.02  0.00  0.00  0.97  0.01  0.00  0.00  0.02  0.00
  H0019576                1.00   0.02  0.00  0.00  0.98  0.00  0.00  0.00  0.02  0.00
  H0020087                1.00   0.02  0.98  0.00  0.00  0.00  0.00  0.00  0.00  0.00
  H0020211                1.00   0.02  0.00  0.00  0.98  0.00  0.00  0.00  0.96  0.00
  H0018982                1.00   0.02  0.00  0.00  0.98  0.00  0.00  0.00  0.97  0.00
  H0018753                1.00   0.02  0.00  0.00  0.98  0.00  0.00  0.00  0.98  0.00
  H0018845                1.00   1.00  0.00  0.00  0.00  0.00  0.00  0.00  0.00  0.00
  H0018863                1.00   0.02  0.00  0.00  0.98  0.00  0.00  0.00  0.97  0.00
  H0019156                1.00   1.00  0.00  0.00  0.00  0.00  0.00  0.00  0.00  0.00
  H0018929                1.00   0.02  0.96  0.00  0.01  0.00  0.00  0.00  0.98  0.00
  H0018440                1.00   0.02  0.00  0.00  0.98  0.00  0.00  0.00  0.97  0.00
  H0018456                1.00   0.02  0.00  0.00  0.98  0.00  0.00  0.00  0.97  0.00
  H0018968                1.00   0.03  0.00  0.00  0.96  0.01  0.00  0.00  0.97  0.00
  H0022036                1.00   0.02  0.00  0.00  0.00  0.00  0.00  0.98  0.00  0.00
  H0021806                1.00   0.02  0.96  0.00  0.01  0.00  0.00  0.00  0.97  0.00
  H0022111                1.00   0.02  0.00  0.00  0.98  0.00  0.00  0.00  0.00  0.00
  H0021440                1.00   0.02  0.00  0.00  0.98  0.00  0.00  0.00  0.00  0.00
  H0021704                1.00   0.02  0.00  0.00  0.00  0.00  0.00  0.98  0.00  0.00
  H0020521                1.00   0.02  0.00  0.00  0.98  0.00  0.00  0.00  0.97  0.00
  H0020755                1.00   0.02  0.96  0.00  0.01  0.00  0.00  0.00  0.97  0.00
  H0020530                1.00   0.03  0.00  0.00  0.97  0.00  0.00  0.00  0.00  0.00
  H0020618                1.00   0.02  0.00  0.00  0.97  0.00  0.00  0.00  0.96  0.00
  H0021163                1.00   0.02  0.00  0.00  0.98  0.00  0.00  0.00  0.97  0.00
  H0020497                1.20   0.02  0.98  0.00  0.00  0.00  0.00  0.00  0.00  0.00
  H0024325                1.00   0.02  0.00  0.00  0.97  0.00  0.00  0.00  0.97  0.00
  H0023585                1.00   0.02  0.00  0.00  0.00  0.00  0.00  0.98  0.00  0.00
  H0024098                1.00   0.02  0.96  0.00  0.01  0.00  0.00  0.00  0.97  0.00
  H0024235                1.00   0.02  0.00  0.00  0.00  0.00  0.00  0.98  0.00  0.00
  H0024282                1.00   1.00  0.00  0.00  0.00  0.00  0.00  0.00  0.00  0.00
  H0024308                1.00   0.03  0.00  0.00  0.96  0.02  0.00  0.00  0.00  0.00
  H0024498                1.00   0.02  0.00  0.00  0.00  0.00  0.00  0.98  0.00  0.00
  H0026990                1.00   0.02  0.00  0.00  0.98  0.00  0.00  0.00  0.97  0.00
  H0041650                1.00   0.99  0.00  0.00  0.01  0.00  0.00  0.00  0.97  0.00
  H0041011                1.00   0.03  0.00  0.00  0.97  0.00  0.00  0.00  0.97  0.00
  H0045103                1.00   0.02  0.00  0.00  0.97  0.00  0.00  0.00  0.97  0.00
  H0045104                1.00   0.03  0.00  0.00  0.96  0.01  0.00  0.00  0.01  0.00
  H0045105                1.00   0.02  0.00  0.00  0.98  0.00  0.00  0.00  0.97  0.00
  H0045106                1.00   0.02  0.96  0.00  0.01  0.00  0.00  0.00  0.97  0.00
  H0045107                1.00   0.02  0.00  0.00  0.98  0.00  0.00  0.00  0.97  0.00
  H0045108                1.00   0.02  0.00  0.00  0.98  0.00  0.00  0.00  0.98  0.00
  
  
  *************************
  Conduit Surcharge Summary
  *************************
  
  No conduits were surcharged.
  

  Analysis begun on:  Thu Mar 21 16:40:09 2024
  Analysis ended on:  Thu Mar 21 16:40:19 2024
  Total elapsed time: 00:00:10