
  EPA STORM WATER MANAGEMENT MODEL - VERSION 5.2 (Build 5.2.4)
  PYSWMM TOOLKIT API - VERSION v1.0 (2023-11-27)
  ------------------------------------------------------------

  Gievenbeck_2014-06-08 09 15 00_hN8 69 
  
  ****************
  Analysis Options
  ****************
  Flow Units ............... CMS
  Process Models:
    Rainfall/Runoff ........ YES
    RDII ................... NO
    Snowmelt ............... NO
    Groundwater ............ NO
    Flow Routing ........... YES
    Ponding Allowed ........ NO
    Water Quality .......... NO
  Infiltration Method ...... HORTON
  Flow Routing Method ...... DYNWAVE
  Surcharge Method ......... SLOT
  Starting Date ............ 01/01/2024 00:00:00
  Ending Date .............. 01/08/2024 04:00:00
  Antecedent Dry Days ...... 14.0
  Report Time Step ......... 00:01:00
  Wet Time Step ............ 00:01:00
  Dry Time Step ............ 00:01:00
  Routing Time Step ........ 1.00 sec
  Variable Time Step ....... YES
  Maximum Trials ........... 8
  Number of Threads ........ 1
  Head Tolerance ........... 0.001500 m
  
  
  **************************        Volume         Depth
  Runoff Quantity Continuity     hectare-m            mm
  **************************     ---------       -------
  Total Precipitation ......         0.088         8.690
  Evaporation Loss .........         0.010         1.018
  Infiltration Loss ........         0.049         4.825
  Surface Runoff ...........         0.029         2.874
  Final Storage ............         0.000         0.000
  Continuity Error (%) .....        -0.305
  
  
  **************************        Volume        Volume
  Flow Routing Continuity        hectare-m      10^6 ltr
  **************************     ---------     ---------
  Dry Weather Inflow .......         0.000         0.000
  Wet Weather Inflow .......         0.029         0.291
  Groundwater Inflow .......         0.000         0.000
  RDII Inflow ..............         0.000         0.000
  External Inflow ..........         0.000         0.000
  External Outflow .........         0.029         0.292
  Flooding Loss ............         0.000         0.000
  Evaporation Loss .........         0.000         0.000
  Exfiltration Loss ........         0.000         0.000
  Initial Stored Volume ....         0.000         0.000
  Final Stored Volume ......         0.000         0.000
  Continuity Error (%) .....        -0.525
  
  
  *************************
  Highest Continuity Errors
  *************************
  Node R0019718 (-4.08%)
  Node R0019717 (1.46%)
  
  
  ***************************
  Time-Step Critical Elements
  ***************************
  None
  
  
  ********************************
  Highest Flow Instability Indexes
  ********************************
  All links are stable.
  
  
  *********************************
  Most Frequent Nonconverging Nodes
  *********************************
  Convergence obtained at all time steps.
  
  
  *************************
  Routing Time Step Summary
  *************************
  Minimum Time Step           :     0.50 sec
  Average Time Step           :     1.00 sec
  Maximum Time Step           :     1.00 sec
  % of Time in Steady State   :     0.00
  Average Iterations per Step :     2.00
  % of Steps Not Converging   :     0.00
  Time Step Frequencies       :
      1.000 -  0.871 sec      :   100.00 %
      0.871 -  0.758 sec      :     0.00 %
      0.758 -  0.660 sec      :     0.00 %
      0.660 -  0.574 sec      :     0.00 %
      0.574 -  0.500 sec      :     0.00 %
  
  
  ***************************
  Subcatchment Runoff Summary
  ***************************
  
  ------------------------------------------------------------------------------------------------------------------------------
                            Total      Total      Total      Total     Imperv       Perv      Total       Total     Peak  Runoff
                           Precip      Runon       Evap      Infil     Runoff     Runoff     Runoff      Runoff   Runoff   Coeff
  Subcatchment                 mm         mm         mm         mm         mm         mm         mm    10^6 ltr      CMS
  ------------------------------------------------------------------------------------------------------------------------------
  EZG_368                    8.69       0.00       1.01       4.85       3.36       0.00       2.85        0.01     0.03   0.329
  EZG_392                    8.69       0.00       1.01       4.85       3.36       0.00       2.86        0.01     0.03   0.329
  EZG_352                    8.69       0.00       1.02       4.85       3.35       0.00       2.85        0.02     0.04   0.328
  EZG_372                    8.69       0.00       1.00       4.85       3.38       0.00       2.88        0.00     0.01   0.331
  EZG_416                    8.69       0.00       1.01       4.85       3.37       0.00       2.86        0.01     0.02   0.329
  EZG_388                    8.69       0.00       1.01       4.85       3.36       0.00       2.85        0.01     0.03   0.328
  EZG_394                    8.69       0.00       1.01       4.85       3.37       0.00       2.86        0.01     0.02   0.329
  EZG_400                    8.69       0.00       1.01       4.85       3.37       0.00       2.86        0.01     0.02   0.330
  EZG_390                    8.69       0.00       1.01       4.85       3.37       0.00       2.86        0.01     0.03   0.329
  EZG_350                    8.69       0.00       1.01       4.85       3.36       0.00       2.85        0.01     0.03   0.328
  EZG_370                    8.69       0.00       1.01       4.85       3.36       0.00       2.86        0.01     0.03   0.329
  EZG_398                    8.69       0.00       0.99       4.85       3.39       0.00       2.88        0.00     0.01   0.332
  EZG_382                    8.69       0.00       0.99       4.85       3.39       0.00       2.88        0.00     0.01   0.332
  EZG_374                    8.69       0.00       1.22       4.08       4.02       0.00       3.42        0.01     0.03   0.393
  EZG_412                    8.69       0.00       0.99       4.86       3.41       0.00       2.90        0.00     0.00   0.334
  EZG_344                    8.69       0.00       1.00       4.85       3.37       0.00       2.86        0.01     0.02   0.330
  EZG_376                    8.69       0.00       1.00       4.85       3.38       0.00       2.87        0.01     0.02   0.330
  EZG_356                    8.69       0.00       1.02       4.85       3.35       0.00       2.85        0.02     0.04   0.327
  EZG_386                    8.69       0.00       1.02       4.85       3.34       0.00       2.84        0.02     0.05   0.327
  EZG_380                    8.69       0.00       1.01       4.85       3.36       0.00       2.86        0.01     0.03   0.329
  EZG_378                    8.69       0.00       1.01       4.85       3.36       0.00       2.86        0.01     0.03   0.329
  EZG_414                    8.69       0.00       0.99       4.85       3.39       0.00       2.89        0.00     0.01   0.332
  EZG_402                    8.69       0.00       1.01       4.85       3.36       0.00       2.86        0.01     0.03   0.329
  EZG_358                    8.69       0.00       1.02       4.85       3.35       0.00       2.85        0.02     0.04   0.327
  EZG_364                    8.69       0.00       1.02       4.85       3.35       0.00       2.85        0.02     0.04   0.327
  EZG_410                    8.69       0.00       1.00       4.85       3.37       0.00       2.87        0.01     0.02   0.330
  EZG_366                    8.69       0.00       1.00       4.85       3.37       0.00       2.87        0.01     0.02   0.330
  EZG_18259                  8.69       0.00       1.00       4.85       3.37       0.00       2.87        0.01     0.02   0.330
  EZG_18258                  8.69       0.00       0.99       4.86       3.40       0.00       2.89        0.00     0.01   0.333
  EZG_346                    8.69       0.00       0.99       4.93       3.30       0.00       2.80        0.01     0.03   0.322
  EZG_348                    8.69       0.00       0.98       4.93       3.31       0.00       2.81        0.01     0.02   0.323
  
  
  ******************
  Node Depth Summary
  ******************
  
  ---------------------------------------------------------------------------------
                                 Average  Maximum  Maximum  Time of Max    Reported
                                   Depth    Depth      HGL   Occurrence   Max Depth
  Node                 Type       Meters   Meters   Meters  days hr:min      Meters
  ---------------------------------------------------------------------------------
  R0019466             JUNCTION     0.00     0.24    69.69     0  04:30        0.23
  R0019468             JUNCTION     0.00     0.24    69.55     0  04:30        0.24
  R0019831             JUNCTION     0.00     0.12    69.29     0  04:30        0.11
  R0019825             JUNCTION     0.00     0.20    69.04     0  04:30        0.19
  R0019843             JUNCTION     0.00     0.27    67.90     0  04:33        0.27
  R0019368             JUNCTION     0.00     0.41    67.20     0  04:33        0.40
  R0019369             JUNCTION     0.00     0.29    66.88     0  04:33        0.29
  R0019370             JUNCTION     0.00     0.25    66.15     0  04:33        0.25
  R0019345             JUNCTION     0.00     0.21    70.11     0  04:31        0.21
  R0019346             JUNCTION     0.00     0.19    69.99     0  04:31        0.19
  R0043600             JUNCTION     0.00     0.21    69.88     0  04:31        0.21
  R0019203             JUNCTION     0.00     0.23    69.77     0  04:31        0.23
  R0043594             JUNCTION     0.00     0.17    69.90     0  04:30        0.17
  R0021458             JUNCTION     0.00     0.21    69.86     0  04:30        0.21
  R0019202             JUNCTION     0.00     0.20    69.78     0  04:31        0.20
  R0019373             JUNCTION     0.00     0.13    69.80     0  04:30        0.12
  R0019254             JUNCTION     0.00     0.20    70.24     0  04:30        0.20
  R0019716             JUNCTION     0.00     0.25    69.26     0  04:32        0.25
  R0019946             JUNCTION     0.00     0.38    69.00     0  04:32        0.37
  R0013935             JUNCTION     0.00     0.11    68.94     0  04:30        0.11
  R0019939             JUNCTION     0.00     0.18    68.75     0  04:30        0.18
  R0019944             JUNCTION     0.00     0.23    68.51     0  04:33        0.23
  R0043703             JUNCTION     0.00     0.28    68.88     0  04:32        0.28
  R0019945             JUNCTION     0.00     0.29    68.69     0  04:33        0.29
  R0039621             JUNCTION     0.00     0.08    69.65     0  04:30        0.07
  R0019838             JUNCTION     0.00     0.18    69.64     0  04:30        0.18
  R0039606             JUNCTION     0.00     0.20    69.79     0  04:31        0.20
  R0019204             JUNCTION     0.00     0.00    69.91     0  00:00        0.00
  R0019205             JUNCTION     0.00     0.00    69.62     0  00:00        0.00
  R0019849             JUNCTION     0.00     0.21    68.73     0  04:31        0.21
  R0019371             JUNCTION     0.00     0.00    70.41     0  00:00        0.00
  R0019718             JUNCTION     0.00     0.30    69.72     0  04:32        0.30
  R0021442             JUNCTION     0.00     0.28    70.33     0  04:30        0.28
  R0019247             JUNCTION     0.00     0.24    70.12     0  04:31        0.24
  R0019719             JUNCTION     0.00     0.20    69.88     0  04:31        0.19
  R0019767             JUNCTION     0.00     0.27    65.00     0  04:33        0.27
  R0019768             JUNCTION     0.00     0.23    64.00     0  04:33        0.23
  R0021453             JUNCTION     0.00     0.08    70.03     0  04:30        0.08
  R0019839             JUNCTION     0.00     0.16    69.55     0  04:30        0.16
  R0019717             JUNCTION     0.00     0.25    69.59     0  04:31        0.25
  R0019252             JUNCTION     0.00     0.15    70.34     0  04:30        0.15
  R0019721             JUNCTION     0.00     0.15    70.02     0  04:30        0.15
  R0019942             JUNCTION     0.00     0.15    68.80     0  04:30        0.15
  R0019206             JUNCTION     0.00     0.00    69.07     0  00:00        0.00
  R0019840             JUNCTION     0.00     0.15    69.12     0  04:30        0.15
  R0043702             JUNCTION     0.00     0.22    68.92     0  04:30        0.22
  R0019723             JUNCTION     0.00     0.12    70.20     0  04:30        0.11
  R0019724             JUNCTION     0.00     0.06    70.22     0  04:30        0.06
  R0021433             JUNCTION     0.00     0.14    70.53     0  04:30        0.14
  R0021435             JUNCTION     0.00     0.20    70.38     0  04:30        0.19
  R0019769             OUTFALL      0.00     0.23    63.61     0  04:34        0.23
  
  
  *******************
  Node Inflow Summary
  *******************
  
  -------------------------------------------------------------------------------------------------
                                  Maximum  Maximum                  Lateral       Total        Flow
                                  Lateral    Total  Time of Max      Inflow      Inflow     Balance
                                   Inflow   Inflow   Occurrence      Volume      Volume       Error
  Node                 Type           CMS      CMS  days hr:min    10^6 ltr    10^6 ltr     Percent
  -------------------------------------------------------------------------------------------------
  R0019466             JUNCTION     0.031    0.057     0  04:30      0.0118      0.0221      -0.013
  R0019468             JUNCTION     0.020    0.069     0  04:30     0.00686      0.0289       0.032
  R0019831             JUNCTION     0.026    0.026     0  04:30     0.00926     0.00926      -0.303
  R0019825             JUNCTION     0.026    0.050     0  04:30     0.00929      0.0186      -0.044
  R0019843             JUNCTION     0.000    0.493     0  04:32           0       0.292      -0.052
  R0019368             JUNCTION     0.000    0.492     0  04:33           0       0.293      -0.002
  R0019369             JUNCTION     0.000    0.488     0  04:33           0       0.293       0.001
  R0019370             JUNCTION     0.000    0.489     0  04:33           0       0.293       0.015
  R0019345             JUNCTION     0.000    0.044     0  04:30           0      0.0182       0.281
  R0019346             JUNCTION     0.004    0.072     0  04:30     0.00116      0.0304       0.130
  R0043600             JUNCTION     0.000    0.074     0  04:31           0      0.0353       0.356
  R0019203             JUNCTION     0.008    0.153     0  04:31     0.00255      0.0788      -0.012
  R0043594             JUNCTION     0.042    0.062     0  04:30      0.0168       0.024      -0.814
  R0021458             JUNCTION     0.034    0.085     0  04:30      0.0131      0.0373      -0.044
  R0019202             JUNCTION     0.012    0.079     0  04:31     0.00389      0.0412      -0.067
  R0019373             JUNCTION     0.028    0.028     0  04:30      0.0102      0.0102      -0.140
  R0019254             JUNCTION     0.024    0.048     0  04:30     0.00834      0.0182      -0.123
  R0019716             JUNCTION     0.034    0.287     0  04:32       0.013       0.163      -0.100
  R0019946             JUNCTION     0.000    0.290     0  04:32           0       0.164       0.114
  R0013935             JUNCTION     0.023    0.023     0  04:30     0.00794     0.00794      -0.385
  R0019939             JUNCTION     0.009    0.030     0  04:30     0.00285      0.0108       0.012
  R0019944             JUNCTION     0.021    0.361     0  04:33     0.00738       0.209       0.004
  R0043703             JUNCTION     0.025    0.307     0  04:32     0.00905       0.172      -0.003
  R0019945             JUNCTION     0.000    0.355     0  04:32           0       0.202       0.004
  R0039621             JUNCTION     0.000    0.004     0  04:29           0     0.00036       2.803
  R0019838             JUNCTION     0.044    0.044     0  04:30      0.0182      0.0186      -0.066
  R0039606             JUNCTION     0.000    0.078     0  04:31           0      0.0375       0.403
  R0019204             JUNCTION     0.000    0.000     0  00:00           0           0       0.000 ltr
  R0019205             JUNCTION     0.000    0.000     0  00:00           0           0       0.000 ltr
  R0019849             JUNCTION     0.000    0.072     0  04:30           0      0.0294       0.088
  R0019371             JUNCTION     0.000    0.000     0  00:00           0           0       0.000 ltr
  R0019718             JUNCTION     0.030    0.169     0  04:31      0.0111      0.0899      -3.924
  R0021442             JUNCTION     0.033    0.070     0  04:30       0.013      0.0294      -0.003
  R0019247             JUNCTION     0.017    0.077     0  04:30     0.00572      0.0351      -0.355
  R0019719             JUNCTION     0.018    0.082     0  04:31     0.00602      0.0364      -0.077
  R0019767             JUNCTION     0.000    0.488     0  04:33           0       0.293      -0.006
  R0019768             JUNCTION     0.000    0.488     0  04:33           0       0.293       0.049
  R0021453             JUNCTION     0.021    0.021     0  04:30     0.00725     0.00725       0.627
  R0019839             JUNCTION     0.044    0.077     0  04:30       0.018      0.0362      -0.123
  R0019717             JUNCTION     0.053    0.270     0  04:32      0.0227       0.153       1.482
  R0019252             JUNCTION     0.027    0.027     0  04:30      0.0098      0.0098      -0.320
  R0019721             JUNCTION     0.008    0.031     0  04:30     0.00251      0.0111       0.099
  R0019942             JUNCTION     0.000    0.046     0  04:30           0      0.0186       0.195
  R0019206             JUNCTION     0.000    0.000     0  00:00           0           0       0.000 ltr
  R0019840             JUNCTION     0.000    0.137     0  04:30           0      0.0652       0.090
  R0043702             JUNCTION     0.044    0.171     0  04:30       0.018      0.0832      -0.042
  R0019723             JUNCTION     0.020    0.025     0  04:30     0.00681     0.00859      -0.453
  R0019724             JUNCTION     0.006    0.006     0  04:30     0.00177     0.00177      -0.527
  R0021433             JUNCTION     0.028    0.028     0  04:30      0.0102      0.0102      -0.337
  R0021435             JUNCTION     0.018    0.044     0  04:30     0.00625      0.0165       0.176
  R0019769             OUTFALL      0.000    0.489     0  04:34           0       0.292       0.000
  
  
  **********************
  Node Surcharge Summary
  **********************
  
  No nodes were surcharged.
  
  
  *********************
  Node Flooding Summary
  *********************
  
  No nodes were flooded.
  
  
  ***********************
  Outfall Loading Summary
  ***********************
  
  -----------------------------------------------------------
                         Flow       Avg       Max       Total
                         Freq      Flow      Flow      Volume
  Outfall Node           Pcnt       CMS       CMS    10^6 ltr
  -----------------------------------------------------------
  R0019769               1.65     0.029     0.489       0.292
  -----------------------------------------------------------
  System                 1.65     0.029     0.489       0.292
  
  
  ********************
  Link Flow Summary
  ********************
  
  -----------------------------------------------------------------------------
                                 Maximum  Time of Max   Maximum    Max/    Max/
                                  |Flow|   Occurrence   |Veloc|    Full    Full
  Link                 Type          CMS  days hr:min     m/sec    Flow   Depth
  -----------------------------------------------------------------------------
  H0014431             CONDUIT     0.052     0  04:30      0.89    0.97    0.78
  H0014433             CONDUIT     0.025     0  04:30      0.67    0.31    0.52
  H0014352             CONDUIT     0.492     0  04:33      2.25    0.20    0.38
  H0014373             CONDUIT     0.489     0  04:33      2.99    0.23    0.30
  H0017981             CONDUIT     0.042     0  04:31      0.95    1.20    0.61
  H0017755             CONDUIT     0.072     0  04:31      1.15    0.59    0.50
  H0017791             CONDUIT     0.054     0  04:30      0.56    0.08    0.21
  H0017357             CONDUIT     0.000     0  00:00      0.00    0.00    0.21
  H0018216             CONDUIT     0.044     0  04:30      0.87    0.80    0.68
  H0016792             CONDUIT     0.290     0  04:32      1.46    0.17    0.35
  H0019507             CONDUIT     0.022     0  04:30      0.66    0.30    0.48
  H0019998             CONDUIT     0.361     0  04:33      2.47    0.14    0.28
  H0019576             CONDUIT     0.309     0  04:33      1.81    0.21    0.31
  H0020087             CONDUIT     0.004     0  04:29      0.16    0.02    0.25
  H0020211             CONDUIT     0.297     0  04:32      1.42    0.74    0.37
  H0018982             CONDUIT     0.078     0  04:31      0.74    0.12    0.22
  H0018753             CONDUIT     0.026     0  04:30      0.59    0.37    0.60
  H0018845             CONDUIT     0.000     0  00:00      0.00    0.00    0.00
  H0018863             CONDUIT     0.026     0  04:30      0.59    0.62    0.65
  H0019156             CONDUIT     0.000     0  00:00      0.00    0.00    0.00
  H0018929             CONDUIT     0.154     0  04:32      0.98    0.13    0.29
  H0018440             CONDUIT     0.064     0  04:30      0.98    1.14    0.86
  H0018456             CONDUIT     0.072     0  04:31      1.20    0.44    0.48
  H0018968             CONDUIT     0.488     0  04:33      3.40    0.19    0.28
  H0022036             CONDUIT     0.020     0  04:30      0.54    0.02    0.12
  H0021806             CONDUIT     0.074     0  04:31      1.04    0.66    0.55
  H0022111             CONDUIT     0.036     0  04:30      0.64    0.26    0.34
  H0021440             CONDUIT     0.270     0  04:32      1.86    0.17    0.28
  H0021704             CONDUIT     0.167     0  04:32      1.05    0.32    0.30
  H0020521             CONDUIT     0.025     0  04:30      0.58    0.50    0.59
  H0020755             CONDUIT     0.028     0  04:30      0.58    0.31    0.42
  H0020530             CONDUIT     0.488     0  04:33      2.13    0.42    0.39
  H0020618             CONDUIT     0.354     0  04:33      2.34    0.22    0.29
  H0021163             CONDUIT     0.046     0  04:30      1.11    0.78    0.57
  H0020497             CONDUIT     0.000     0  00:00      0.00    0.00    0.46
  H0024325             CONDUIT     0.075     0  04:30      1.47    0.22    0.31
  H0023585             CONDUIT     0.170     0  04:31      2.08    0.39    0.44
  H0024098             CONDUIT     0.070     0  04:30      1.36    0.82    0.77
  H0024235             CONDUIT     0.081     0  04:31      1.15    0.33    0.39
  H0024282             CONDUIT     0.000     0  00:00      0.00    0.00    0.00
  H0024308             CONDUIT     0.489     0  04:34      3.81    0.14    0.26
  H0024498             CONDUIT     0.063     0  04:31      1.16    0.98    0.72
  H0026990             CONDUIT     0.024     0  04:30      0.68    0.18    0.33
  H0041650             CONDUIT     0.078     0  04:31      0.69    0.09    0.24
  H0041011             CONDUIT     0.046     0  04:30      1.05    0.46    0.60
  H0045103             CONDUIT     0.073     0  04:31      0.71    0.09    0.22
  H0045104             CONDUIT     0.488     0  04:33      3.18    0.17    0.29
  H0045105             CONDUIT     0.006     0  04:30      0.34    0.10    0.30
  H0045106             CONDUIT     0.137     0  04:31      2.13    0.18    0.36
  H0045107             CONDUIT     0.026     0  04:30      0.69    0.43    0.55
  H0045108             CONDUIT     0.037     0  04:30      0.67    0.67    0.79
  
  
  ***************************
  Flow Classification Summary
  ***************************
  
  -------------------------------------------------------------------------------------
                      Adjusted    ---------- Fraction of Time in Flow Class ---------- 
                       /Actual         Up    Down  Sub   Sup   Up    Down  Norm  Inlet 
  Conduit               Length    Dry  Dry   Dry   Crit  Crit  Crit  Crit  Ltd   Ctrl  
  -------------------------------------------------------------------------------------
  H0014431                1.00   0.03  0.96  0.00  0.02  0.00  0.00  0.00  0.97  0.00
  H0014433                1.00   0.03  0.00  0.00  0.97  0.00  0.00  0.00  0.97  0.00
  H0014352                1.00   0.03  0.00  0.00  0.97  0.01  0.00  0.00  0.97  0.00
  H0014373                1.00   0.03  0.00  0.00  0.96  0.01  0.00  0.00  0.95  0.00
  H0017981                1.00   0.03  0.00  0.00  0.00  0.00  0.00  0.97  0.00  0.00
  H0017755                1.00   0.03  0.00  0.00  0.00  0.00  0.00  0.97  0.00  0.00
  H0017791                1.00   0.03  0.00  0.00  0.97  0.00  0.00  0.00  0.97  0.00
  H0017357                1.00   0.03  0.97  0.00  0.00  0.00  0.00  0.00  0.00  0.00
  H0018216                1.00   0.03  0.96  0.00  0.02  0.00  0.00  0.00  0.97  0.00
  H0016792                1.00   0.03  0.95  0.00  0.02  0.00  0.00  0.00  0.97  0.00
  H0019507                1.00   0.03  0.00  0.00  0.97  0.00  0.00  0.00  0.97  0.00
  H0019998                1.00   0.03  0.00  0.00  0.96  0.01  0.00  0.00  0.02  0.00
  H0019576                1.00   0.03  0.00  0.00  0.97  0.00  0.00  0.00  0.02  0.00
  H0020087                1.00   0.03  0.97  0.00  0.00  0.00  0.00  0.00  0.97  0.00
  H0020211                1.00   0.03  0.00  0.00  0.97  0.00  0.00  0.00  0.95  0.00
  H0018982                1.00   0.03  0.00  0.00  0.97  0.00  0.00  0.00  0.96  0.00
  H0018753                1.00   0.03  0.00  0.00  0.97  0.00  0.00  0.00  0.97  0.00
  H0018845                1.00   1.00  0.00  0.00  0.00  0.00  0.00  0.00  0.00  0.00
  H0018863                1.00   0.03  0.00  0.00  0.97  0.00  0.00  0.00  0.97  0.00
  H0019156                1.00   1.00  0.00  0.00  0.00  0.00  0.00  0.00  0.00  0.00
  H0018929                1.00   0.03  0.96  0.00  0.02  0.00  0.00  0.00  0.97  0.00
  H0018440                1.00   0.03  0.00  0.00  0.97  0.00  0.00  0.00  0.97  0.00
  H0018456                1.00   0.03  0.00  0.00  0.97  0.00  0.00  0.00  0.97  0.00
  H0018968                1.00   0.03  0.00  0.00  0.96  0.02  0.00  0.00  0.96  0.00
  H0022036                1.00   0.03  0.00  0.00  0.00  0.00  0.00  0.97  0.00  0.00
  H0021806                1.00   0.03  0.96  0.00  0.02  0.00  0.00  0.00  0.97  0.00
  H0022111                1.00   0.03  0.00  0.00  0.97  0.00  0.00  0.00  0.00  0.00
  H0021440                1.00   0.03  0.00  0.00  0.97  0.01  0.00  0.00  0.01  0.00
  H0021704                1.00   0.03  0.00  0.00  0.00  0.00  0.00  0.97  0.00  0.00
  H0020521                1.00   0.03  0.00  0.00  0.97  0.00  0.00  0.00  0.97  0.00
  H0020755                1.00   0.03  0.96  0.00  0.01  0.00  0.00  0.00  0.97  0.00
  H0020530                1.00   0.03  0.00  0.00  0.97  0.01  0.00  0.00  0.00  0.00
  H0020618                1.00   0.03  0.00  0.00  0.96  0.01  0.00  0.00  0.96  0.00
  H0021163                1.00   0.03  0.00  0.00  0.97  0.00  0.00  0.00  0.96  0.00
  H0020497                1.20   0.03  0.97  0.00  0.00  0.00  0.00  0.00  0.00  0.00
  H0024325                1.00   0.03  0.00  0.00  0.97  0.01  0.00  0.00  0.96  0.00
  H0023585                1.00   0.03  0.00  0.00  0.00  0.00  0.00  0.97  0.00  0.00
  H0024098                1.00   0.03  0.96  0.00  0.02  0.00  0.00  0.00  0.97  0.00
  H0024235                1.00   0.03  0.00  0.00  0.00  0.00  0.00  0.97  0.00  0.00
  H0024282                1.00   1.00  0.00  0.00  0.00  0.00  0.00  0.00  0.00  0.00
  H0024308                1.00   0.03  0.00  0.00  0.95  0.02  0.00  0.00  0.00  0.00
  H0024498                1.00   0.03  0.00  0.00  0.00  0.00  0.00  0.97  0.00  0.00
  H0026990                1.00   0.03  0.00  0.00  0.97  0.00  0.00  0.00  0.97  0.00
  H0041650                1.00   0.98  0.00  0.00  0.01  0.00  0.00  0.00  0.97  0.00
  H0041011                1.00   0.03  0.00  0.00  0.97  0.00  0.00  0.00  0.97  0.00
  H0045103                1.00   0.03  0.00  0.00  0.97  0.00  0.00  0.00  0.97  0.00
  H0045104                1.00   0.03  0.00  0.00  0.96  0.02  0.00  0.00  0.02  0.00
  H0045105                1.00   0.03  0.00  0.00  0.97  0.00  0.00  0.00  0.97  0.00
  H0045106                1.00   0.03  0.96  0.00  0.01  0.01  0.00  0.00  0.97  0.00
  H0045107                1.00   0.03  0.00  0.00  0.97  0.00  0.00  0.00  0.97  0.00
  H0045108                1.00   0.03  0.00  0.00  0.97  0.00  0.00  0.00  0.97  0.00
  
  
  *************************
  Conduit Surcharge Summary
  *************************
  
  ----------------------------------------------------------------------------
                                                           Hours        Hours 
                         --------- Hours Full --------   Above Full   Capacity
  Conduit                Both Ends  Upstream  Dnstream   Normal Flow   Limited
  ----------------------------------------------------------------------------
  H0017981                    0.01      0.01      0.01      0.04         0.01
  H0018440                    0.01      0.01      0.01      0.04         0.01
  

  Analysis begun on:  Thu Mar 21 16:37:01 2024
  Analysis ended on:  Thu Mar 21 16:37:11 2024
  Total elapsed time: 00:00:10