
  EPA STORM WATER MANAGEMENT MODEL - VERSION 5.2 (Build 5.2.4)
  PYSWMM TOOLKIT API - VERSION v1.0 (2023-11-27)
  ------------------------------------------------------------

  Gievenbeck_2014-07-24 13 45 00_hN11 22 
  
  ****************
  Analysis Options
  ****************
  Flow Units ............... CMS
  Process Models:
    Rainfall/Runoff ........ YES
    RDII ................... NO
    Snowmelt ............... NO
    Groundwater ............ NO
    Flow Routing ........... YES
    Ponding Allowed ........ NO
    Water Quality .......... NO
  Infiltration Method ...... HORTON
  Flow Routing Method ...... DYNWAVE
  Surcharge Method ......... SLOT
  Starting Date ............ 01/01/2024 00:00:00
  Ending Date .............. 01/04/2024 04:00:00
  Antecedent Dry Days ...... 14.0
  Report Time Step ......... 00:01:00
  Wet Time Step ............ 00:01:00
  Dry Time Step ............ 00:01:00
  Routing Time Step ........ 1.00 sec
  Variable Time Step ....... YES
  Maximum Trials ........... 8
  Number of Threads ........ 1
  Head Tolerance ........... 0.001500 m
  
  
  **************************        Volume         Depth
  Runoff Quantity Continuity     hectare-m            mm
  **************************     ---------       -------
  Total Precipitation ......         0.114        11.220
  Evaporation Loss .........         0.010         1.030
  Infiltration Loss ........         0.063         6.270
  Surface Runoff ...........         0.040         3.941
  Final Storage ............         0.000         0.000
  Continuity Error (%) .....        -0.187
  
  
  **************************        Volume        Volume
  Flow Routing Continuity        hectare-m      10^6 ltr
  **************************     ---------     ---------
  Dry Weather Inflow .......         0.000         0.000
  Wet Weather Inflow .......         0.040         0.399
  Groundwater Inflow .......         0.000         0.000
  RDII Inflow ..............         0.000         0.000
  External Inflow ..........         0.000         0.000
  External Outflow .........         0.040         0.400
  Flooding Loss ............         0.000         0.000
  Evaporation Loss .........         0.000         0.000
  Exfiltration Loss ........         0.000         0.000
  Initial Stored Volume ....         0.000         0.000
  Final Stored Volume ......         0.000         0.000
  Continuity Error (%) .....        -0.291
  
  
  *************************
  Highest Continuity Errors
  *************************
  Node R0019718 (-1.85%)
  
  
  ***************************
  Time-Step Critical Elements
  ***************************
  None
  
  
  ********************************
  Highest Flow Instability Indexes
  ********************************
  All links are stable.
  
  
  *********************************
  Most Frequent Nonconverging Nodes
  *********************************
  Convergence obtained at all time steps.
  
  
  *************************
  Routing Time Step Summary
  *************************
  Minimum Time Step           :     0.50 sec
  Average Time Step           :     1.00 sec
  Maximum Time Step           :     1.00 sec
  % of Time in Steady State   :     0.00
  Average Iterations per Step :     2.00
  % of Steps Not Converging   :     0.00
  Time Step Frequencies       :
      1.000 -  0.871 sec      :   100.00 %
      0.871 -  0.758 sec      :     0.00 %
      0.758 -  0.660 sec      :     0.00 %
      0.660 -  0.574 sec      :     0.00 %
      0.574 -  0.500 sec      :     0.00 %
  
  
  ***************************
  Subcatchment Runoff Summary
  ***************************
  
  ------------------------------------------------------------------------------------------------------------------------------
                            Total      Total      Total      Total     Imperv       Perv      Total       Total     Peak  Runoff
                           Precip      Runon       Evap      Infil     Runoff     Runoff     Runoff      Runoff   Runoff   Coeff
  Subcatchment                 mm         mm         mm         mm         mm         mm         mm    10^6 ltr      CMS
  ------------------------------------------------------------------------------------------------------------------------------
  EZG_368                   11.22       0.00       1.02       6.30       4.61       0.00       3.92        0.02     0.02   0.349
  EZG_392                   11.22       0.00       1.02       6.30       4.61       0.00       3.92        0.01     0.02   0.349
  EZG_352                   11.22       0.00       1.03       6.30       4.60       0.00       3.91        0.02     0.03   0.348
  EZG_372                   11.22       0.00       1.01       6.30       4.63       0.00       3.94        0.01     0.01   0.351
  EZG_416                   11.22       0.00       1.02       6.30       4.61       0.00       3.92        0.01     0.02   0.350
  EZG_388                   11.22       0.00       1.03       6.30       4.60       0.00       3.91        0.02     0.02   0.349
  EZG_394                   11.22       0.00       1.02       6.30       4.62       0.00       3.92        0.01     0.02   0.350
  EZG_400                   11.22       0.00       1.02       6.30       4.62       0.00       3.92        0.01     0.02   0.350
  EZG_390                   11.22       0.00       1.02       6.30       4.61       0.00       3.92        0.01     0.02   0.349
  EZG_350                   11.22       0.00       1.03       6.30       4.60       0.00       3.91        0.02     0.02   0.349
  EZG_370                   11.22       0.00       1.02       6.30       4.61       0.00       3.92        0.01     0.02   0.349
  EZG_398                   11.22       0.00       1.01       6.31       4.64       0.00       3.94        0.00     0.01   0.351
  EZG_382                   11.22       0.00       1.01       6.31       4.64       0.00       3.94        0.00     0.01   0.351
  EZG_374                   11.22       0.00       1.23       5.32       5.52       0.00       4.69        0.02     0.02   0.418
  EZG_412                   11.22       0.00       1.00       6.31       4.65       0.00       3.96        0.00     0.00   0.353
  EZG_344                   11.22       0.00       1.02       6.30       4.62       0.00       3.92        0.01     0.01   0.350
  EZG_376                   11.22       0.00       1.01       6.30       4.62       0.00       3.93        0.01     0.01   0.350
  EZG_356                   11.22       0.00       1.03       6.30       4.60       0.00       3.91        0.03     0.03   0.348
  EZG_386                   11.22       0.00       1.04       6.30       4.59       0.00       3.90        0.03     0.04   0.348
  EZG_380                   11.22       0.00       1.02       6.30       4.61       0.00       3.92        0.02     0.02   0.349
  EZG_378                   11.22       0.00       1.02       6.30       4.61       0.00       3.92        0.01     0.02   0.349
  EZG_414                   11.22       0.00       1.00       6.31       4.64       0.00       3.94        0.00     0.01   0.351
  EZG_402                   11.22       0.00       1.02       6.30       4.61       0.00       3.92        0.01     0.02   0.349
  EZG_358                   11.22       0.00       1.03       6.30       4.60       0.00       3.91        0.02     0.03   0.348
  EZG_364                   11.22       0.00       1.03       6.30       4.60       0.00       3.91        0.02     0.03   0.348
  EZG_410                   11.22       0.00       1.01       6.30       4.62       0.00       3.93        0.01     0.01   0.350
  EZG_366                   11.22       0.00       1.02       6.30       4.62       0.00       3.93        0.01     0.01   0.350
  EZG_18259                 11.22       0.00       1.02       6.30       4.62       0.00       3.93        0.01     0.01   0.350
  EZG_18258                 11.22       0.00       1.00       6.31       4.65       0.00       3.95        0.00     0.00   0.352
  EZG_346                   11.22       0.00       1.00       6.40       4.52       0.00       3.84        0.01     0.02   0.342
  EZG_348                   11.22       0.00       0.99       6.40       4.53       0.00       3.85        0.01     0.01   0.343
  
  
  ******************
  Node Depth Summary
  ******************
  
  ---------------------------------------------------------------------------------
                                 Average  Maximum  Maximum  Time of Max    Reported
                                   Depth    Depth      HGL   Occurrence   Max Depth
  Node                 Type       Meters   Meters   Meters  days hr:min      Meters
  ---------------------------------------------------------------------------------
  R0019466             JUNCTION     0.00     0.18    69.63     0  04:35        0.18
  R0019468             JUNCTION     0.00     0.19    69.50     0  04:36        0.19
  R0019831             JUNCTION     0.00     0.10    69.27     0  04:35        0.10
  R0019825             JUNCTION     0.00     0.16    69.00     0  04:35        0.16
  R0019843             JUNCTION     0.00     0.23    67.86     0  04:38        0.23
  R0019368             JUNCTION     0.00     0.34    67.13     0  04:39        0.34
  R0019369             JUNCTION     0.00     0.25    66.84     0  04:39        0.25
  R0019370             JUNCTION     0.00     0.22    66.12     0  04:39        0.22
  R0019345             JUNCTION     0.00     0.17    70.07     0  04:36        0.17
  R0019346             JUNCTION     0.00     0.15    69.95     0  04:36        0.15
  R0043600             JUNCTION     0.00     0.18    69.85     0  04:37        0.18
  R0019203             JUNCTION     0.00     0.19    69.73     0  04:37        0.19
  R0043594             JUNCTION     0.00     0.14    69.87     0  04:35        0.14
  R0021458             JUNCTION     0.00     0.18    69.83     0  04:36        0.18
  R0019202             JUNCTION     0.00     0.17    69.75     0  04:37        0.17
  R0019373             JUNCTION     0.00     0.10    69.77     0  04:35        0.10
  R0019254             JUNCTION     0.00     0.16    70.20     0  04:35        0.16
  R0019716             JUNCTION     0.00     0.21    69.22     0  04:38        0.21
  R0019946             JUNCTION     0.00     0.33    68.95     0  04:38        0.33
  R0013935             JUNCTION     0.00     0.09    68.92     0  04:35        0.09
  R0019939             JUNCTION     0.00     0.15    68.72     0  04:35        0.14
  R0019944             JUNCTION     0.00     0.20    68.48     0  04:39        0.20
  R0043703             JUNCTION     0.00     0.24    68.84     0  04:38        0.24
  R0019945             JUNCTION     0.00     0.24    68.64     0  04:39        0.24
  R0039621             JUNCTION     0.00     0.05    69.62     0  04:36        0.05
  R0019838             JUNCTION     0.00     0.15    69.61     0  04:36        0.15
  R0039606             JUNCTION     0.00     0.16    69.75     0  04:37        0.16
  R0019204             JUNCTION     0.00     0.00    69.91     0  00:00        0.00
  R0019205             JUNCTION     0.00     0.00    69.62     0  00:00        0.00
  R0019849             JUNCTION     0.00     0.17    68.69     0  04:36        0.17
  R0019371             JUNCTION     0.00     0.00    70.41     0  00:00        0.00
  R0019718             JUNCTION     0.00     0.26    69.68     0  04:38        0.26
  R0021442             JUNCTION     0.00     0.21    70.26     0  04:35        0.21
  R0019247             JUNCTION     0.00     0.20    70.08     0  04:36        0.20
  R0019719             JUNCTION     0.00     0.17    69.85     0  04:36        0.17
  R0019767             JUNCTION     0.00     0.23    64.96     0  04:39        0.23
  R0019768             JUNCTION     0.00     0.20    63.97     0  04:39        0.20
  R0021453             JUNCTION     0.00     0.07    70.02     0  04:35        0.07
  R0019839             JUNCTION     0.00     0.14    69.53     0  04:35        0.14
  R0019717             JUNCTION     0.00     0.22    69.56     0  04:38        0.22
  R0019252             JUNCTION     0.00     0.12    70.31     0  04:35        0.12
  R0019721             JUNCTION     0.00     0.13    70.00     0  04:35        0.13
  R0019942             JUNCTION     0.00     0.12    68.77     0  04:35        0.12
  R0019206             JUNCTION     0.00     0.00    69.07     0  00:00        0.00
  R0019840             JUNCTION     0.00     0.12    69.09     0  04:36        0.12
  R0043702             JUNCTION     0.00     0.18    68.88     0  04:36        0.18
  R0019723             JUNCTION     0.00     0.10    70.18     0  04:35        0.10
  R0019724             JUNCTION     0.00     0.05    70.21     0  04:35        0.05
  R0021433             JUNCTION     0.00     0.11    70.50     0  04:35        0.11
  R0021435             JUNCTION     0.00     0.15    70.33     0  04:35        0.15
  R0019769             OUTFALL      0.00     0.20    63.58     0  04:39        0.20
  
  
  *******************
  Node Inflow Summary
  *******************
  
  -------------------------------------------------------------------------------------------------
                                  Maximum  Maximum                  Lateral       Total        Flow
                                  Lateral    Total  Time of Max      Inflow      Inflow     Balance
                                   Inflow   Inflow   Occurrence      Volume      Volume       Error
  Node                 Type           CMS      CMS  days hr:min    10^6 ltr    10^6 ltr     Percent
  -------------------------------------------------------------------------------------------------
  R0019466             JUNCTION     0.022    0.040     0  04:35      0.0162      0.0302      -0.060
  R0019468             JUNCTION     0.014    0.049     0  04:35      0.0094      0.0397       0.055
  R0019831             JUNCTION     0.018    0.018     0  04:35      0.0127      0.0127      -0.236
  R0019825             JUNCTION     0.018    0.035     0  04:35      0.0127      0.0255      -0.031
  R0019843             JUNCTION     0.000    0.364     0  04:38           0         0.4      -0.034
  R0019368             JUNCTION     0.000    0.363     0  04:38           0         0.4       0.002
  R0019369             JUNCTION     0.000    0.361     0  04:39           0         0.4      -0.001
  R0019370             JUNCTION     0.000    0.362     0  04:39           0         0.4       0.013
  R0019345             JUNCTION     0.000    0.031     0  04:35           0      0.0249       0.232
  R0019346             JUNCTION     0.003    0.051     0  04:36     0.00158      0.0416       0.095
  R0043600             JUNCTION     0.000    0.055     0  04:36           0      0.0483       0.284
  R0019203             JUNCTION     0.006    0.112     0  04:37     0.00349       0.108      -0.017
  R0043594             JUNCTION     0.029    0.043     0  04:35      0.0231       0.033      -0.579
  R0021458             JUNCTION     0.024    0.059     0  04:35       0.018      0.0511      -0.038
  R0019202             JUNCTION     0.009    0.057     0  04:37     0.00532      0.0565      -0.049
  R0019373             JUNCTION     0.020    0.020     0  04:35      0.0141      0.0141      -0.114
  R0019254             JUNCTION     0.017    0.034     0  04:35      0.0114      0.0249      -0.103
  R0019716             JUNCTION     0.024    0.213     0  04:38      0.0178       0.223      -0.074
  R0019946             JUNCTION     0.000    0.211     0  04:38           0       0.223       0.082
  R0013935             JUNCTION     0.016    0.016     0  04:35      0.0109      0.0109      -0.278
  R0019939             JUNCTION     0.007    0.022     0  04:35      0.0039      0.0148      -0.011
  R0019944             JUNCTION     0.015    0.265     0  04:38      0.0101       0.286      -0.004
  R0043703             JUNCTION     0.018    0.223     0  04:38      0.0124       0.236       0.003
  R0019945             JUNCTION     0.000    0.258     0  04:38           0       0.276       0.004
  R0039621             JUNCTION     0.000    0.003     0  04:35           0    0.000206       3.186
  R0019838             JUNCTION     0.031    0.031     0  04:35       0.025      0.0252      -0.037
  R0039606             JUNCTION     0.000    0.055     0  04:36           0      0.0513       0.292
  R0019204             JUNCTION     0.000    0.000     0  00:00           0           0       0.000 ltr
  R0019205             JUNCTION     0.000    0.000     0  00:00           0           0       0.000 ltr
  R0019849             JUNCTION     0.000    0.052     0  04:35           0      0.0402       0.041
  R0019371             JUNCTION     0.000    0.000     0  00:00           0           0       0.000 ltr
  R0019718             JUNCTION     0.021    0.125     0  04:37      0.0152       0.123      -1.820
  R0021442             JUNCTION     0.023    0.049     0  04:35      0.0178      0.0403      -0.050
  R0019247             JUNCTION     0.012    0.056     0  04:35     0.00783      0.0482      -0.235
  R0019719             JUNCTION     0.013    0.059     0  04:36     0.00825      0.0499      -0.048
  R0019767             JUNCTION     0.000    0.361     0  04:39           0         0.4      -0.005
  R0019768             JUNCTION     0.000    0.361     0  04:39           0         0.4       0.032
  R0021453             JUNCTION     0.015    0.015     0  04:35     0.00993     0.00993       0.300
  R0019839             JUNCTION     0.031    0.054     0  04:35      0.0247      0.0498      -0.094
  R0019717             JUNCTION     0.037    0.198     0  04:38      0.0312       0.207       0.600
  R0019252             JUNCTION     0.019    0.019     0  04:35      0.0134      0.0134      -0.261
  R0019721             JUNCTION     0.006    0.023     0  04:35     0.00343      0.0152       0.078
  R0019942             JUNCTION     0.000    0.033     0  04:35           0      0.0255       0.151
  R0019206             JUNCTION     0.000    0.000     0  00:00           0           0       0.000 ltr
  R0019840             JUNCTION     0.000    0.098     0  04:36           0      0.0895       0.057
  R0043702             JUNCTION     0.031    0.122     0  04:36      0.0248       0.114      -0.020
  R0019723             JUNCTION     0.014    0.018     0  04:35     0.00933      0.0118      -0.342
  R0019724             JUNCTION     0.004    0.004     0  04:35     0.00242     0.00242      -0.419
  R0021433             JUNCTION     0.020    0.020     0  04:35       0.014       0.014      -0.262
  R0021435             JUNCTION     0.013    0.031     0  04:35     0.00856      0.0226       0.122
  R0019769             OUTFALL      0.000    0.362     0  04:39           0         0.4       0.000
  
  
  **********************
  Node Surcharge Summary
  **********************
  
  No nodes were surcharged.
  
  
  *********************
  Node Flooding Summary
  *********************
  
  No nodes were flooded.
  
  
  ***********************
  Outfall Loading Summary
  ***********************
  
  -----------------------------------------------------------
                         Flow       Avg       Max       Total
                         Freq      Flow      Flow      Volume
  Outfall Node           Pcnt       CMS       CMS    10^6 ltr
  -----------------------------------------------------------
  R0019769               4.34     0.034     0.362       0.400
  -----------------------------------------------------------
  System                 4.34     0.034     0.362       0.400
  
  
  ********************
  Link Flow Summary
  ********************
  
  -----------------------------------------------------------------------------
                                 Maximum  Time of Max   Maximum    Max/    Max/
                                  |Flow|   Occurrence   |Veloc|    Full    Full
  Link                 Type          CMS  days hr:min     m/sec    Flow   Depth
  -----------------------------------------------------------------------------
  H0014431             CONDUIT     0.038     0  04:35      0.83    0.70    0.61
  H0014433             CONDUIT     0.017     0  04:35      0.62    0.22    0.42
  H0014352             CONDUIT     0.363     0  04:38      2.08    0.15    0.32
  H0014373             CONDUIT     0.362     0  04:39      2.74    0.17    0.26
  H0017981             CONDUIT     0.030     0  04:36      0.84    0.85    0.51
  H0017755             CONDUIT     0.053     0  04:37      1.05    0.43    0.43
  H0017791             CONDUIT     0.038     0  04:35      0.50    0.05    0.18
  H0017357             CONDUIT     0.000     0  00:00      0.00    0.00    0.17
  H0018216             CONDUIT     0.031     0  04:35      0.79    0.57    0.55
  H0016792             CONDUIT     0.211     0  04:38      1.32    0.12    0.30
  H0019507             CONDUIT     0.015     0  04:35      0.60    0.21    0.40
  H0019998             CONDUIT     0.264     0  04:39      2.26    0.11    0.24
  H0019576             CONDUIT     0.223     0  04:39      1.64    0.15    0.27
  H0020087             CONDUIT     0.003     0  04:35      0.13    0.01    0.19
  H0020211             CONDUIT     0.214     0  04:38      1.26    0.53    0.31
  H0018982             CONDUIT     0.055     0  04:36      0.67    0.09    0.19
  H0018753             CONDUIT     0.018     0  04:35      0.55    0.26    0.48
  H0018845             CONDUIT     0.000     0  00:00      0.00    0.00    0.00
  H0018863             CONDUIT     0.020     0  04:35      0.55    0.46    0.52
  H0019156             CONDUIT     0.000     0  00:00      0.00    0.00    0.00
  H0018929             CONDUIT     0.113     0  04:37      0.91    0.10    0.25
  H0018440             CONDUIT     0.047     0  04:36      0.92    0.85    0.68
  H0018456             CONDUIT     0.051     0  04:36      1.10    0.31    0.40
  H0018968             CONDUIT     0.361     0  04:39      3.12    0.14    0.24
  H0022036             CONDUIT     0.014     0  04:35      0.51    0.01    0.10
  H0021806             CONDUIT     0.055     0  04:36      0.96    0.48    0.47
  H0022111             CONDUIT     0.026     0  04:36      0.58    0.18    0.28
  H0021440             CONDUIT     0.199     0  04:38      1.71    0.13    0.24
  H0021704             CONDUIT     0.122     0  04:38      0.95    0.23    0.26
  H0020521             CONDUIT     0.018     0  04:35      0.54    0.36    0.48
  H0020755             CONDUIT     0.020     0  04:35      0.54    0.22    0.35
  H0020530             CONDUIT     0.361     0  04:39      1.96    0.31    0.33
  H0020618             CONDUIT     0.258     0  04:39      2.13    0.16    0.24
  H0021163             CONDUIT     0.033     0  04:35      1.03    0.55    0.46
  H0020497             CONDUIT     0.000     0  00:00      0.00    0.00    0.39
  H0024325             CONDUIT     0.053     0  04:35      1.33    0.16    0.26
  H0023585             CONDUIT     0.122     0  04:36      1.90    0.28    0.36
  H0024098             CONDUIT     0.051     0  04:36      1.25    0.60    0.64
  H0024235             CONDUIT     0.058     0  04:37      1.04    0.24    0.33
  H0024282             CONDUIT     0.000     0  00:00      0.00    0.00    0.00
  H0024308             CONDUIT     0.362     0  04:39      3.49    0.11    0.22
  H0024498             CONDUIT     0.046     0  04:36      1.06    0.71    0.59
  H0026990             CONDUIT     0.017     0  04:35      0.63    0.13    0.28
  H0041650             CONDUIT     0.056     0  04:37      0.65    0.07    0.20
  H0041011             CONDUIT     0.033     0  04:36      0.98    0.33    0.48
  H0045103             CONDUIT     0.052     0  04:37      0.66    0.07    0.18
  H0045104             CONDUIT     0.361     0  04:39      2.92    0.13    0.25
  H0045105             CONDUIT     0.004     0  04:35      0.31    0.07    0.25
  H0045106             CONDUIT     0.098     0  04:36      1.94    0.13    0.30
  H0045107             CONDUIT     0.019     0  04:35      0.63    0.31    0.44
  H0045108             CONDUIT     0.028     0  04:35      0.64    0.51    0.61
  
  
  ***************************
  Flow Classification Summary
  ***************************
  
  -------------------------------------------------------------------------------------
                      Adjusted    ---------- Fraction of Time in Flow Class ---------- 
                       /Actual         Up    Down  Sub   Sup   Up    Down  Norm  Inlet 
  Conduit               Length    Dry  Dry   Dry   Crit  Crit  Crit  Crit  Ltd   Ctrl  
  -------------------------------------------------------------------------------------
  H0014431                1.00   0.06  0.00  0.00  0.94  0.00  0.00  0.00  0.94  0.00
  H0014433                1.00   0.06  0.00  0.00  0.94  0.00  0.00  0.00  0.94  0.00
  H0014352                1.00   0.06  0.00  0.00  0.92  0.02  0.00  0.00  0.94  0.00
  H0014373                1.00   0.06  0.00  0.00  0.90  0.04  0.00  0.00  0.89  0.00
  H0017981                1.00   0.06  0.00  0.00  0.00  0.00  0.00  0.94  0.00  0.00
  H0017755                1.00   0.06  0.00  0.00  0.00  0.00  0.00  0.94  0.00  0.00
  H0017791                1.00   0.06  0.00  0.00  0.94  0.00  0.00  0.00  0.94  0.00
  H0017357                1.00   0.06  0.94  0.00  0.00  0.00  0.00  0.00  0.00  0.00
  H0018216                1.00   0.06  0.90  0.00  0.04  0.00  0.00  0.00  0.94  0.00
  H0016792                1.00   0.06  0.89  0.00  0.05  0.00  0.00  0.00  0.94  0.00
  H0019507                1.00   0.06  0.00  0.00  0.94  0.00  0.00  0.00  0.94  0.00
  H0019998                1.00   0.06  0.00  0.00  0.90  0.04  0.00  0.00  0.05  0.00
  H0019576                1.00   0.06  0.00  0.00  0.92  0.02  0.00  0.00  0.05  0.00
  H0020087                1.00   0.06  0.93  0.00  0.01  0.00  0.00  0.00  0.94  0.00
  H0020211                1.00   0.06  0.00  0.00  0.94  0.00  0.00  0.00  0.89  0.00
  H0018982                1.00   0.06  0.00  0.00  0.94  0.00  0.00  0.00  0.91  0.00
  H0018753                1.00   0.06  0.00  0.00  0.94  0.00  0.00  0.00  0.94  0.00
  H0018845                1.00   1.00  0.00  0.00  0.00  0.00  0.00  0.00  0.00  0.00
  H0018863                1.00   0.06  0.00  0.00  0.94  0.00  0.00  0.00  0.94  0.00
  H0019156                1.00   1.00  0.00  0.00  0.00  0.00  0.00  0.00  0.00  0.00
  H0018929                1.00   0.06  0.89  0.00  0.05  0.00  0.00  0.00  0.94  0.00
  H0018440                1.00   0.06  0.00  0.00  0.94  0.00  0.00  0.00  0.94  0.00
  H0018456                1.00   0.06  0.00  0.00  0.94  0.00  0.00  0.00  0.94  0.00
  H0018968                1.00   0.06  0.88  0.00  0.01  0.04  0.00  0.00  0.90  0.00
  H0022036                1.00   0.06  0.00  0.00  0.01  0.00  0.00  0.93  0.01  0.00
  H0021806                1.00   0.06  0.90  0.00  0.04  0.00  0.00  0.00  0.93  0.00
  H0022111                1.00   0.06  0.00  0.00  0.94  0.00  0.00  0.00  0.00  0.00
  H0021440                1.00   0.06  0.00  0.00  0.92  0.02  0.00  0.00  0.02  0.00
  H0021704                1.00   0.06  0.00  0.00  0.00  0.00  0.00  0.94  0.00  0.00
  H0020521                1.00   0.06  0.00  0.00  0.94  0.00  0.00  0.00  0.94  0.00
  H0020755                1.00   0.06  0.90  0.00  0.04  0.00  0.00  0.00  0.94  0.00
  H0020530                1.00   0.06  0.00  0.00  0.92  0.02  0.00  0.00  0.01  0.00
  H0020618                1.00   0.06  0.00  0.00  0.91  0.03  0.00  0.00  0.90  0.00
  H0021163                1.00   0.06  0.00  0.00  0.94  0.00  0.00  0.00  0.91  0.00
  H0020497                1.20   0.06  0.94  0.00  0.00  0.00  0.00  0.00  0.00  0.00
  H0024325                1.00   0.06  0.00  0.00  0.92  0.02  0.00  0.00  0.91  0.00
  H0023585                1.00   0.06  0.00  0.00  0.00  0.00  0.00  0.94  0.00  0.00
  H0024098                1.00   0.06  0.90  0.00  0.04  0.00  0.00  0.00  0.94  0.00
  H0024235                1.00   0.06  0.00  0.00  0.00  0.00  0.00  0.94  0.00  0.00
  H0024282                1.00   1.00  0.00  0.00  0.00  0.00  0.00  0.00  0.00  0.00
  H0024308                1.00   0.06  0.00  0.00  0.89  0.05  0.00  0.00  0.01  0.00
  H0024498                1.00   0.06  0.00  0.00  0.00  0.00  0.00  0.94  0.00  0.00
  H0026990                1.00   0.06  0.00  0.00  0.94  0.00  0.00  0.00  0.94  0.00
  H0041650                1.00   0.95  0.01  0.00  0.04  0.00  0.00  0.00  0.94  0.00
  H0041011                1.00   0.06  0.00  0.00  0.94  0.00  0.00  0.00  0.94  0.00
  H0045103                1.00   0.06  0.00  0.00  0.94  0.00  0.00  0.00  0.92  0.00
  H0045104                1.00   0.06  0.00  0.00  0.90  0.04  0.00  0.00  0.05  0.00
  H0045105                1.00   0.06  0.00  0.00  0.94  0.00  0.00  0.00  0.94  0.00
  H0045106                1.00   0.06  0.90  0.00  0.02  0.03  0.00  0.00  0.94  0.00
  H0045107                1.00   0.06  0.00  0.00  0.94  0.00  0.00  0.00  0.94  0.00
  H0045108                1.00   0.06  0.00  0.00  0.94  0.00  0.00  0.00  0.94  0.00
  
  
  *************************
  Conduit Surcharge Summary
  *************************
  
  No conduits were surcharged.
  

  Analysis begun on:  Fri Mar 22 15:54:49 2024
  Analysis ended on:  Fri Mar 22 15:54:58 2024
  Total elapsed time: 00:00:09