
  EPA STORM WATER MANAGEMENT MODEL - VERSION 5.2 (Build 5.2.4)
  PYSWMM TOOLKIT API - VERSION v1.0 (2023-11-27)
  ------------------------------------------------------------

  Gievenbeck_2015-08-30 04 05 00_hN34 04 
  
  ****************
  Analysis Options
  ****************
  Flow Units ............... CMS
  Process Models:
    Rainfall/Runoff ........ YES
    RDII ................... NO
    Snowmelt ............... NO
    Groundwater ............ NO
    Flow Routing ........... YES
    Ponding Allowed ........ NO
    Water Quality .......... NO
  Infiltration Method ...... HORTON
  Flow Routing Method ...... DYNWAVE
  Surcharge Method ......... SLOT
  Starting Date ............ 01/01/2024 00:00:00
  Ending Date .............. 01/08/2024 04:00:00
  Antecedent Dry Days ...... 14.0
  Report Time Step ......... 00:01:00
  Wet Time Step ............ 00:01:00
  Dry Time Step ............ 00:01:00
  Routing Time Step ........ 1.00 sec
  Variable Time Step ....... YES
  Maximum Trials ........... 8
  Number of Threads ........ 1
  Head Tolerance ........... 0.001500 m
  
  
  **************************        Volume         Depth
  Runoff Quantity Continuity     hectare-m            mm
  **************************     ---------       -------
  Total Precipitation ......         0.345        34.040
  Evaporation Loss .........         0.010         0.963
  Infiltration Loss ........         0.141        13.941
  Surface Runoff ...........         0.194        19.196
  Final Storage ............         0.000         0.000
  Continuity Error (%) .....        -0.177
  
  
  **************************        Volume        Volume
  Flow Routing Continuity        hectare-m      10^6 ltr
  **************************     ---------     ---------
  Dry Weather Inflow .......         0.000         0.000
  Wet Weather Inflow .......         0.194         1.943
  Groundwater Inflow .......         0.000         0.000
  RDII Inflow ..............         0.000         0.000
  External Inflow ..........         0.000         0.000
  External Outflow .........         0.192         1.917
  Flooding Loss ............         0.003         0.027
  Evaporation Loss .........         0.000         0.000
  Exfiltration Loss ........         0.000         0.000
  Initial Stored Volume ....         0.000         0.000
  Final Stored Volume ......         0.000         0.000
  Continuity Error (%) .....        -0.037
  
  
  *************************
  Highest Continuity Errors
  *************************
  Node R0019718 (-1.30%)
  
  
  ***************************
  Time-Step Critical Elements
  ***************************
  None
  
  
  ********************************
  Highest Flow Instability Indexes
  ********************************
  All links are stable.
  
  
  *********************************
  Most Frequent Nonconverging Nodes
  *********************************
  Convergence obtained at all time steps.
  
  
  *************************
  Routing Time Step Summary
  *************************
  Minimum Time Step           :     0.50 sec
  Average Time Step           :     1.00 sec
  Maximum Time Step           :     1.00 sec
  % of Time in Steady State   :     0.00
  Average Iterations per Step :     2.00
  % of Steps Not Converging   :     0.00
  Time Step Frequencies       :
      1.000 -  0.871 sec      :   100.00 %
      0.871 -  0.758 sec      :     0.00 %
      0.758 -  0.660 sec      :     0.00 %
      0.660 -  0.574 sec      :     0.00 %
      0.574 -  0.500 sec      :     0.00 %
  
  
  ***************************
  Subcatchment Runoff Summary
  ***************************
  
  ------------------------------------------------------------------------------------------------------------------------------
                            Total      Total      Total      Total     Imperv       Perv      Total       Total     Peak  Runoff
                           Precip      Runon       Evap      Infil     Runoff     Runoff     Runoff      Runoff   Runoff   Coeff
  Subcatchment                 mm         mm         mm         mm         mm         mm         mm    10^6 ltr      CMS
  ------------------------------------------------------------------------------------------------------------------------------
  EZG_368                   34.04       0.00       0.96      14.06      16.11       5.39      19.08        0.08     0.11   0.561
  EZG_392                   34.04       0.00       0.95      13.89      16.12       5.55      19.25        0.06     0.09   0.566
  EZG_352                   34.04       0.00       0.96      14.31      16.10       5.13      18.82        0.11     0.15   0.553
  EZG_372                   34.04       0.00       0.94      13.38      16.14       6.07      19.79        0.03     0.04   0.581
  EZG_416                   34.04       0.00       0.95      13.83      16.12       5.62      19.33        0.06     0.08   0.568
  EZG_388                   34.04       0.00       0.96      14.13      16.11       5.32      19.01        0.09     0.12   0.558
  EZG_394                   34.04       0.00       0.95      13.80      16.12       5.65      19.36        0.05     0.08   0.569
  EZG_400                   34.04       0.00       0.95      13.75      16.13       5.70      19.41        0.05     0.07   0.570
  EZG_390                   34.04       0.00       0.95      13.88      16.12       5.57      19.27        0.06     0.08   0.566
  EZG_350                   34.04       0.00       0.96      14.13      16.11       5.31      19.01        0.09     0.12   0.558
  EZG_370                   34.04       0.00       0.96      13.96      16.12       5.48      19.18        0.07     0.09   0.564
  EZG_398                   34.04       0.00       0.94      13.23      16.15       6.23      19.95        0.02     0.03   0.586
  EZG_382                   34.04       0.00       0.94      13.18      16.15       6.28      20.01        0.02     0.03   0.588
  EZG_374                   34.04       0.00       1.15      11.21      19.33       5.32      21.75        0.08     0.11   0.639
  EZG_412                   34.04       0.00       0.93      12.88      16.17       6.59      20.34        0.01     0.01   0.598
  EZG_344                   34.04       0.00       0.95      13.74      16.13       5.71      19.42        0.05     0.07   0.570
  EZG_376                   34.04       0.00       0.95      13.60      16.13       5.86      19.57        0.04     0.06   0.575
  EZG_356                   34.04       0.00       0.96      14.37      16.10       5.07      18.75        0.12     0.16   0.551
  EZG_386                   34.04       0.00       0.97      14.54      16.10       4.90      18.58        0.15     0.19   0.546
  EZG_380                   34.04       0.00       0.96      14.02      16.11       5.43      19.13        0.07     0.10   0.562
  EZG_378                   34.04       0.00       0.95      13.93      16.12       5.52      19.22        0.07     0.09   0.564
  EZG_414                   34.04       0.00       0.94      13.18      16.15       6.29      20.02        0.02     0.03   0.588
  EZG_402                   34.04       0.00       0.95      13.90      16.12       5.55      19.25        0.06     0.09   0.566
  EZG_358                   34.04       0.00       0.96      14.37      16.10       5.08      18.76        0.12     0.16   0.551
  EZG_364                   34.04       0.00       0.96      14.37      16.10       5.07      18.76        0.12     0.16   0.551
  EZG_410                   34.04       0.00       0.95      13.63      16.13       5.83      19.54        0.04     0.06   0.574
  EZG_366                   34.04       0.00       0.95      13.70      16.13       5.75      19.45        0.05     0.07   0.572
  EZG_18259                 34.04       0.00       0.95      13.70      16.13       5.75      19.46        0.05     0.07   0.572
  EZG_18258                 34.04       0.00       0.94      13.03      16.16       6.44      20.17        0.01     0.02   0.593
  EZG_346                   34.04       0.00       0.94      14.25      15.79       5.49      18.91        0.07     0.09   0.556
  EZG_348                   34.04       0.00       0.93      13.93      15.81       5.81      19.25        0.04     0.06   0.565
  
  
  ******************
  Node Depth Summary
  ******************
  
  ---------------------------------------------------------------------------------
                                 Average  Maximum  Maximum  Time of Max    Reported
                                   Depth    Depth      HGL   Occurrence   Max Depth
  Node                 Type       Meters   Meters   Meters  days hr:min      Meters
  ---------------------------------------------------------------------------------
  R0019466             JUNCTION     0.00     1.31    70.76     0  02:15        1.27
  R0019468             JUNCTION     0.00     1.21    70.52     0  02:15        1.18
  R0019831             JUNCTION     0.00     1.54    70.71     0  02:15        1.53
  R0019825             JUNCTION     0.00     1.50    70.34     0  02:13        1.50
  R0019843             JUNCTION     0.00     1.12    68.75     0  02:16        0.98
  R0019368             JUNCTION     0.00     1.35    68.14     0  02:16        1.26
  R0019369             JUNCTION     0.00     0.71    67.30     0  02:16        0.69
  R0019370             JUNCTION     0.00     0.59    66.49     0  02:16        0.57
  R0019345             JUNCTION     0.00     1.03    70.93     0  02:15        0.94
  R0019346             JUNCTION     0.00     0.80    70.60     0  02:15        0.72
  R0043600             JUNCTION     0.00     0.57    70.24     0  02:15        0.57
  R0019203             JUNCTION     0.00     0.58    70.12     0  02:15        0.57
  R0043594             JUNCTION     0.00     0.45    70.18     0  02:15        0.44
  R0021458             JUNCTION     0.00     0.51    70.16     0  02:16        0.51
  R0019202             JUNCTION     0.00     0.55    70.13     0  02:15        0.55
  R0019373             JUNCTION     0.00     1.04    70.71     0  02:15        1.01
  R0019254             JUNCTION     0.00     1.80    71.84     0  02:15        1.78
  R0019716             JUNCTION     0.00     0.66    69.67     0  02:15        0.66
  R0019946             JUNCTION     0.00     0.92    69.54     0  02:15        0.92
  R0013935             JUNCTION     0.00     1.38    70.21     0  02:15        1.37
  R0019939             JUNCTION     0.00     1.40    69.97     0  02:15        1.38
  R0019944             JUNCTION     0.00     0.59    68.87     0  02:15        0.59
  R0043703             JUNCTION     0.00     0.69    69.29     0  02:16        0.69
  R0019945             JUNCTION     0.00     0.70    69.10     0  02:16        0.70
  R0039621             JUNCTION     0.00     0.30    69.87     0  02:16        0.30
  R0019838             JUNCTION     0.00     0.41    69.87     0  02:15        0.41
  R0039606             JUNCTION     0.00     0.54    70.13     0  02:15        0.54
  R0019204             JUNCTION     0.00     0.00    69.91     0  00:00        0.00
  R0019205             JUNCTION     0.00     0.00    69.62     0  00:00        0.00
  R0019849             JUNCTION     0.00     1.19    69.71     0  02:15        1.17
  R0019371             JUNCTION     0.00     0.00    70.41     0  00:00        0.00
  R0019718             JUNCTION     0.00     0.67    70.09     0  02:15        0.67
  R0021442             JUNCTION     0.00     2.05    72.10     0  02:12        2.05
  R0019247             JUNCTION     0.00     1.06    70.94     0  02:15        1.06
  R0019719             JUNCTION     0.00     0.62    70.30     0  02:15        0.56
  R0019767             JUNCTION     0.00     0.62    65.35     0  02:16        0.62
  R0019768             JUNCTION     0.00     0.52    64.29     0  02:16        0.52
  R0021453             JUNCTION     0.00     0.23    70.18     0  02:15        0.21
  R0019839             JUNCTION     0.00     0.44    69.83     0  02:15        0.41
  R0019717             JUNCTION     0.00     0.61    69.95     0  02:15        0.60
  R0019252             JUNCTION     0.00     1.94    72.13     0  02:14        1.94
  R0019721             JUNCTION     0.00     0.82    70.69     0  02:15        0.72
  R0019942             JUNCTION     0.00     1.18    69.83     0  02:15        1.17
  R0019206             JUNCTION     0.00     0.00    69.07     0  00:00        0.00
  R0019840             JUNCTION     0.00     0.71    69.68     0  02:15        0.70
  R0043702             JUNCTION     0.00     0.93    69.63     0  02:14        0.89
  R0019723             JUNCTION     0.00     0.67    70.75     0  02:15        0.64
  R0019724             JUNCTION     0.00     0.58    70.74     0  02:15        0.53
  R0021433             JUNCTION     0.00     2.15    72.54     0  02:12        2.15
  R0021435             JUNCTION     0.00     2.11    72.29     0  02:12        2.11
  R0019769             OUTFALL      0.00     0.52    63.90     0  02:17        0.52
  
  
  *******************
  Node Inflow Summary
  *******************
  
  -------------------------------------------------------------------------------------------------
                                  Maximum  Maximum                  Lateral       Total        Flow
                                  Lateral    Total  Time of Max      Inflow      Inflow     Balance
                                   Inflow   Inflow   Occurrence      Volume      Volume       Error
  Node                 Type           CMS      CMS  days hr:min    10^6 ltr    10^6 ltr     Percent
  -------------------------------------------------------------------------------------------------
  R0019466             JUNCTION     0.107    0.107     0  02:15      0.0788       0.111       0.077
  R0019468             JUNCTION     0.066    0.144     0  02:14      0.0466       0.153      -0.025
  R0019831             JUNCTION     0.087    0.087     0  02:15      0.0623      0.0623       0.071
  R0019825             JUNCTION     0.087    0.172     0  02:15      0.0625       0.125       0.162
  R0019843             JUNCTION     0.000    2.116     0  02:16           0        1.92      -0.006
  R0019368             JUNCTION     0.000    2.104     0  02:16           0        1.92      -0.004
  R0019369             JUNCTION     0.000    2.119     0  02:16           0        1.92      -0.032
  R0019370             JUNCTION     0.000    2.100     0  02:16           0        1.92       0.004
  R0019345             JUNCTION     0.000    0.152     0  02:14           0       0.122       0.035
  R0019346             JUNCTION     0.014    0.260     0  02:15     0.00812       0.206       0.026
  R0043600             JUNCTION     0.000    0.209     0  02:15           0       0.215      -0.022
  R0019203             JUNCTION     0.028    0.630     0  02:15      0.0177       0.549      -0.005
  R0043594             JUNCTION     0.146    0.196     0  02:15       0.111        0.16      -0.135
  R0021458             JUNCTION     0.117    0.280     0  02:15      0.0873       0.248      -0.005
  R0019202             JUNCTION     0.040    0.404     0  02:15      0.0268       0.315      -0.255
  R0019373             JUNCTION     0.095    0.121     0  02:15      0.0688      0.0737       0.729
  R0019254             JUNCTION     0.079    0.159     0  02:14      0.0563       0.122       0.026
  R0019716             JUNCTION     0.117    1.286     0  02:15      0.0867        1.11      -0.023
  R0019946             JUNCTION     0.000    1.274     0  02:15           0        1.11       0.018
  R0013935             JUNCTION     0.076    0.076     0  02:15      0.0537      0.0537       0.033
  R0019939             JUNCTION     0.031    0.103     0  02:15      0.0198      0.0734      -0.056
  R0019944             JUNCTION     0.071    1.581     0  02:16        0.05        1.41       0.014
  R0043703             JUNCTION     0.085    1.339     0  02:15       0.061        1.17      -0.000
  R0019945             JUNCTION     0.000    1.533     0  02:16           0        1.36      -0.001
  R0039621             JUNCTION     0.000    0.009     0  02:11           0       0.002       0.728
  R0019838             JUNCTION     0.157    0.157     0  02:15        0.12       0.122      -0.014
  R0039606             JUNCTION     0.000    0.278     0  02:16           0       0.248       0.080
  R0019204             JUNCTION     0.000    0.000     0  00:00           0           0       0.000 ltr
  R0019205             JUNCTION     0.000    0.000     0  00:00           0           0       0.000 ltr
  R0019849             JUNCTION     0.000    0.204     0  02:15           0        0.19       0.028
  R0019371             JUNCTION     0.000    0.000     0  00:00           0           0       0.000 ltr
  R0019718             JUNCTION     0.102    0.712     0  02:15      0.0745       0.624      -1.285
  R0021442             JUNCTION     0.114    0.186     0  02:15      0.0824        0.18       0.035
  R0019247             JUNCTION     0.057    0.210     0  02:15       0.039       0.215       0.022
  R0019719             JUNCTION     0.059    0.314     0  02:15       0.041       0.247       0.426
  R0019767             JUNCTION     0.000    2.117     0  02:16           0        1.92      -0.007
  R0019768             JUNCTION     0.000    2.124     0  02:16           0        1.92       0.014
  R0021453             JUNCTION     0.070    0.070     0  02:15      0.0491      0.0491       0.005
  R0019839             JUNCTION     0.155    0.302     0  02:15       0.119       0.239      -0.023
  R0019717             JUNCTION     0.190    1.186     0  02:15       0.148        1.03       0.538
  R0019252             JUNCTION     0.091    0.091     0  02:15      0.0659      0.0659      -0.096
  R0019721             JUNCTION     0.027    0.110     0  02:15      0.0174      0.0761       0.045
  R0019942             JUNCTION     0.000    0.122     0  02:13           0       0.116      -0.227
  R0019206             JUNCTION     0.000    0.000     0  00:00           0           0       0.000 ltr
  R0019840             JUNCTION     0.000    0.422     0  02:14           0       0.392       0.009
  R0043702             JUNCTION     0.155    0.571     0  02:14       0.119       0.511       0.335
  R0019723             JUNCTION     0.066    0.090     0  02:14      0.0462      0.0586      -0.182
  R0019724             JUNCTION     0.020    0.021     0  02:14      0.0123      0.0124      -0.155
  R0021433             JUNCTION     0.094    0.094     0  02:15      0.0688      0.0688      -0.165
  R0021435             JUNCTION     0.061    0.133     0  02:15      0.0428       0.109      -0.026
  R0019769             OUTFALL      0.000    2.135     0  02:17           0        1.92       0.000
  
  
  **********************
  Node Surcharge Summary
  **********************
  
  Surcharging occurs when water rises above the top of the highest conduit.
  ---------------------------------------------------------------------
                                               Max. Height   Min. Depth
                                   Hours       Above Crown    Below Rim
  Node                 Type      Surcharged         Meters       Meters
  ---------------------------------------------------------------------
  R0019466             JUNCTION        0.29          1.005        1.505
  R0019468             JUNCTION        0.29          0.913        1.517
  R0019831             JUNCTION        0.16          1.235        0.125
  R0019825             JUNCTION        0.24          1.200        0.000
  R0019843             JUNCTION        0.03          0.221        2.399
  R0019368             JUNCTION        0.08          0.454        0.596
  R0019345             JUNCTION        0.15          0.731        1.019
  R0019346             JUNCTION        0.09          0.396        1.344
  R0043600             JUNCTION        0.12          0.172        2.408
  R0019373             JUNCTION        0.16          0.735        1.765
  R0019254             JUNCTION        0.20          1.505        0.325
  R0019946             JUNCTION        0.02          0.019        1.501
  R0013935             JUNCTION        0.17          1.081        0.239
  R0019939             JUNCTION        0.28          1.097        0.523
  R0019849             JUNCTION        0.30          0.890        1.040
  R0021442             JUNCTION        0.32          1.750        0.000
  R0019247             JUNCTION        0.17          0.661        1.199
  R0019719             JUNCTION        0.03          0.117        1.683
  R0019252             JUNCTION        0.16          1.640        0.000
  R0019721             JUNCTION        0.08          0.420        1.140
  R0019942             JUNCTION        0.25          0.884        0.766
  R0019840             JUNCTION        0.05          0.214        2.356
  R0043702             JUNCTION        0.07          0.430        2.480
  R0019723             JUNCTION        0.03          0.273        1.047
  R0019724             JUNCTION        0.04          0.284        1.166
  R0021433             JUNCTION        0.24          1.850        0.000
  R0021435             JUNCTION        0.29          1.810        0.000
  
  
  *********************
  Node Flooding Summary
  *********************
  
  Flooding refers to all water that overflows a node, whether it ponds or not.
  --------------------------------------------------------------------------
                                                             Total   Maximum
                                 Maximum   Time of Max       Flood    Ponded
                        Hours       Rate    Occurrence      Volume     Depth
  Node                 Flooded       CMS   days hr:min    10^6 ltr    Meters
  --------------------------------------------------------------------------
  R0019825                0.06     0.068      0  02:15       0.008     0.000
  R0021442                0.05     0.032      0  02:15       0.003     0.000
  R0019252                0.01     0.012      0  02:15       0.000     0.000
  R0021433                0.05     0.023      0  02:15       0.003     0.000
  R0021435                0.08     0.061      0  02:15       0.012     0.000
  
  
  ***********************
  Outfall Loading Summary
  ***********************
  
  -----------------------------------------------------------
                         Flow       Avg       Max       Total
                         Freq      Flow      Flow      Volume
  Outfall Node           Pcnt       CMS       CMS    10^6 ltr
  -----------------------------------------------------------
  R0019769               2.03     0.153     2.135       1.917
  -----------------------------------------------------------
  System                 2.03     0.153     2.135       1.917
  
  
  ********************
  Link Flow Summary
  ********************
  
  -----------------------------------------------------------------------------
                                 Maximum  Time of Max   Maximum    Max/    Max/
                                  |Flow|   Occurrence   |Veloc|    Full    Full
  Link                 Type          CMS  days hr:min     m/sec    Flow   Depth
  -----------------------------------------------------------------------------
  H0014431             CONDUIT     0.079     0  02:14      1.12    1.46    1.00
  H0014433             CONDUIT     0.086     0  02:15      1.22    1.10    1.00
  H0014352             CONDUIT     2.104     0  02:16      3.31    0.86    1.00
  H0014373             CONDUIT     2.100     0  02:16      4.29    0.97    0.72
  H0017981             CONDUIT     0.149     0  02:15      2.11    4.22    1.00
  H0017755             CONDUIT     0.209     0  02:15      1.66    1.69    1.00
  H0017791             CONDUIT     0.183     0  02:16      0.68    0.26    0.53
  H0017357             CONDUIT     0.120     0  02:15      1.69    1.91    1.00
  H0018216             CONDUIT     0.152     0  02:14      2.15    2.77    1.00
  H0016792             CONDUIT     1.274     0  02:15      2.16    0.73    0.88
  H0019507             CONDUIT     0.073     0  02:15      1.03    1.01    1.00
  H0019998             CONDUIT     1.635     0  02:16      3.46    0.65    0.93
  H0019576             CONDUIT     1.341     0  02:16      2.55    0.90    0.77
  H0020087             CONDUIT     0.010     0  02:16      0.19    0.04    0.72
  H0020211             CONDUIT     1.276     0  02:16      2.13    3.18    0.89
  H0018982             CONDUIT     0.278     0  02:16      0.83    0.45    0.58
  H0018753             CONDUIT     0.038     0  02:10      0.61    0.53    1.00
  H0018845             CONDUIT     0.000     0  00:00      0.00    0.00    0.00
  H0018863             CONDUIT     0.101     0  02:15      1.43    2.38    1.00
  H0019156             CONDUIT     0.000     0  00:00      0.00    0.00    0.00
  H0018929             CONDUIT     0.627     0  02:15      1.38    0.54    0.69
  H0018440             CONDUIT     0.162     0  02:12      2.29    2.89    1.00
  H0018456             CONDUIT     0.261     0  02:15      2.08    1.58    1.00
  H0018968             CONDUIT     2.124     0  02:16      5.02    0.82    0.63
  H0022036             CONDUIT     0.070     0  02:15      0.56    0.05    0.35
  H0021806             CONDUIT     0.209     0  02:15      1.67    1.86    1.00
  H0022111             CONDUIT     0.149     0  02:15      0.91    1.06    0.85
  H0021440             CONDUIT     1.188     0  02:15      2.51    0.77    0.70
  H0021704             CONDUIT     0.714     0  02:16      1.61    1.36    0.69
  H0020521             CONDUIT     0.082     0  02:14      1.15    1.65    1.00
  H0020755             CONDUIT     0.103     0  02:15      0.82    1.13    1.00
  H0020530             CONDUIT     2.119     0  02:16      3.33    1.81    1.00
  H0020618             CONDUIT     1.532     0  02:16      3.28    0.95    0.71
  H0021163             CONDUIT     0.122     0  02:13      1.72    2.03    1.00
  H0020497             CONDUIT     0.000     0  00:00      0.00    0.00    1.00
  H0024325             CONDUIT     0.286     0  02:14      1.88    0.85    1.00
  H0023585             CONDUIT     0.548     0  02:15      2.79    1.26    1.00
  H0024098             CONDUIT     0.203     0  02:15      2.87    2.36    1.00
  H0024235             CONDUIT     0.315     0  02:15      1.61    1.29    1.00
  H0024282             CONDUIT     0.000     0  00:00      0.00    0.00    0.00
  H0024308             CONDUIT     2.135     0  02:17      5.66    0.63    0.57
  H0024498             CONDUIT     0.141     0  02:15      2.00    2.19    1.00
  H0026990             CONDUIT     0.084     0  02:15      0.78    0.64    1.00
  H0041650             CONDUIT     0.405     0  02:15      0.99    0.47    0.63
  H0041011             CONDUIT     0.117     0  02:13      1.65    1.15    1.00
  H0045103             CONDUIT     0.291     0  02:16      0.81    0.36    0.61
  H0045104             CONDUIT     2.117     0  02:16      4.68    0.75    0.67
  H0045105             CONDUIT     0.024     0  02:14      0.41    0.41    1.00
  H0045106             CONDUIT     0.420     0  02:14      2.37    0.57    1.00
  H0045107             CONDUIT     0.072     0  02:15      1.01    1.18    1.00
  H0045108             CONDUIT     0.091     0  02:17      1.28    1.63    1.00
  
  
  ***************************
  Flow Classification Summary
  ***************************
  
  -------------------------------------------------------------------------------------
                      Adjusted    ---------- Fraction of Time in Flow Class ---------- 
                       /Actual         Up    Down  Sub   Sup   Up    Down  Norm  Inlet 
  Conduit               Length    Dry  Dry   Dry   Crit  Crit  Crit  Crit  Ltd   Ctrl  
  -------------------------------------------------------------------------------------
  H0014431                1.00   0.01  0.00  0.00  0.99  0.00  0.00  0.00  0.98  0.00
  H0014433                1.00   0.01  0.00  0.00  0.99  0.00  0.00  0.00  0.99  0.00
  H0014352                1.00   0.01  0.00  0.00  0.98  0.01  0.00  0.00  0.99  0.00
  H0014373                1.00   0.01  0.00  0.00  0.97  0.02  0.00  0.00  0.96  0.00
  H0017981                1.00   0.01  0.00  0.00  0.00  0.00  0.00  0.99  0.00  0.00
  H0017755                1.00   0.01  0.00  0.00  0.00  0.00  0.00  0.99  0.00  0.00
  H0017791                1.00   0.01  0.00  0.00  0.99  0.00  0.00  0.00  0.99  0.00
  H0017357                1.00   0.01  0.99  0.00  0.00  0.00  0.00  0.00  0.99  0.00
  H0018216                1.00   0.01  0.97  0.00  0.02  0.00  0.00  0.00  0.99  0.00
  H0016792                1.00   0.01  0.96  0.00  0.02  0.00  0.00  0.00  0.99  0.00
  H0019507                1.00   0.01  0.00  0.00  0.99  0.00  0.00  0.00  0.99  0.00
  H0019998                1.00   0.01  0.00  0.00  0.97  0.02  0.00  0.00  0.02  0.00
  H0019576                1.00   0.01  0.00  0.00  0.98  0.01  0.00  0.00  0.02  0.00
  H0020087                1.00   0.01  0.98  0.00  0.01  0.00  0.00  0.00  0.98  0.00
  H0020211                1.00   0.01  0.00  0.00  0.99  0.00  0.00  0.00  0.96  0.00
  H0018982                1.00   0.01  0.00  0.00  0.99  0.00  0.00  0.00  0.97  0.00
  H0018753                1.00   0.01  0.00  0.00  0.99  0.00  0.00  0.00  0.99  0.00
  H0018845                1.00   1.00  0.00  0.00  0.00  0.00  0.00  0.00  0.00  0.00
  H0018863                1.00   0.01  0.00  0.00  0.99  0.00  0.00  0.00  0.98  0.00
  H0019156                1.00   1.00  0.00  0.00  0.00  0.00  0.00  0.00  0.00  0.00
  H0018929                1.00   0.01  0.97  0.00  0.02  0.00  0.00  0.00  0.99  0.00
  H0018440                1.00   0.01  0.00  0.00  0.99  0.00  0.00  0.00  0.98  0.00
  H0018456                1.00   0.01  0.00  0.00  0.99  0.00  0.00  0.00  0.98  0.00
  H0018968                1.00   0.01  0.00  0.00  0.97  0.02  0.00  0.00  0.97  0.00
  H0022036                1.00   0.01  0.00  0.00  0.01  0.00  0.00  0.98  0.00  0.00
  H0021806                1.00   0.01  0.97  0.00  0.02  0.00  0.00  0.00  0.98  0.00
  H0022111                1.00   0.01  0.00  0.00  0.99  0.00  0.00  0.00  0.00  0.00
  H0021440                1.00   0.01  0.00  0.00  0.98  0.01  0.00  0.00  0.01  0.00
  H0021704                1.00   0.01  0.00  0.00  0.00  0.00  0.00  0.99  0.00  0.00
  H0020521                1.00   0.01  0.00  0.00  0.99  0.00  0.00  0.00  0.99  0.00
  H0020755                1.00   0.01  0.97  0.00  0.02  0.00  0.00  0.00  0.99  0.00
  H0020530                1.00   0.01  0.00  0.00  0.98  0.01  0.00  0.00  0.00  0.00
  H0020618                1.00   0.01  0.00  0.00  0.97  0.01  0.00  0.00  0.97  0.00
  H0021163                1.00   0.01  0.00  0.00  0.99  0.00  0.00  0.00  0.97  0.00
  H0020497                1.20   0.01  0.99  0.00  0.00  0.00  0.00  0.00  0.00  0.00
  H0024325                1.00   0.01  0.00  0.00  0.98  0.01  0.00  0.00  0.97  0.00
  H0023585                1.00   0.01  0.00  0.00  0.00  0.00  0.00  0.99  0.00  0.00
  H0024098                1.00   0.01  0.97  0.00  0.02  0.00  0.00  0.00  0.99  0.00
  H0024235                1.00   0.01  0.00  0.00  0.00  0.00  0.00  0.99  0.00  0.00
  H0024282                1.00   1.00  0.00  0.00  0.00  0.00  0.00  0.00  0.00  0.00
  H0024308                1.00   0.01  0.00  0.00  0.96  0.02  0.00  0.00  0.01  0.00
  H0024498                1.00   0.01  0.00  0.00  0.00  0.00  0.00  0.99  0.00  0.00
  H0026990                1.00   0.01  0.00  0.00  0.99  0.00  0.00  0.00  0.99  0.00
  H0041650                1.00   0.98  0.00  0.00  0.02  0.00  0.00  0.00  0.98  0.00
  H0041011                1.00   0.01  0.00  0.00  0.99  0.00  0.00  0.00  0.99  0.00
  H0045103                1.00   0.01  0.00  0.00  0.99  0.00  0.00  0.00  0.98  0.00
  H0045104                1.00   0.01  0.00  0.00  0.97  0.02  0.00  0.00  0.02  0.00
  H0045105                1.00   0.01  0.00  0.00  0.99  0.00  0.00  0.00  0.99  0.00
  H0045106                1.00   0.01  0.97  0.00  0.01  0.01  0.00  0.00  0.99  0.00
  H0045107                1.00   0.01  0.00  0.00  0.99  0.00  0.00  0.00  0.99  0.00
  H0045108                1.00   0.01  0.00  0.00  0.99  0.00  0.00  0.00  0.99  0.00
  
  
  *************************
  Conduit Surcharge Summary
  *************************
  
  ----------------------------------------------------------------------------
                                                           Hours        Hours 
                         --------- Hours Full --------   Above Full   Capacity
  Conduit                Both Ends  Upstream  Dnstream   Normal Flow   Limited
  ----------------------------------------------------------------------------
  H0014431                    0.29      0.29      0.29      0.31         0.29
  H0014433                    0.16      0.16      0.24      0.03         0.01
  H0014352                    0.03      0.03      0.08      0.01         0.01
  H0017981                    0.10      0.15      0.10      0.34         0.13
  H0017755                    0.09      0.12      0.09      0.19         0.11
  H0017357                    0.01      0.01      0.16      0.08         0.01
  H0018216                    0.15      0.20      0.15      0.25         0.18
  H0016792                    0.01      0.01      0.02      0.01         0.01
  H0019507                    0.17      0.17      0.28      0.01         0.01
  H0019998                    0.01      0.01      0.03      0.01         0.01
  H0020211                    0.01      0.02      0.01      0.29         0.01
  H0018753                    0.16      0.16      0.29      0.01         0.01
  H0018863                    0.28      0.28      0.30      0.16         0.15
  H0018440                    0.24      0.32      0.24      0.36         0.30
  H0018456                    0.07      0.09      0.07      0.12         0.08
  H0021806                    0.12      0.17      0.12      0.21         0.16
  H0022111                    0.01      0.01      0.01      0.01         0.01
  H0021704                    0.01      0.01      0.01      0.11         0.01
  H0020521                    0.16      0.16      0.20      0.11         0.11
  H0020755                    0.08      0.08      0.09      0.02         0.02
  H0020530                    0.01      0.08      0.01      0.16         0.07
  H0021163                    0.23      0.24      0.25      0.23         0.21
  H0024325                    0.01      0.01      0.05      0.01         0.01
  H0023585                    0.04      0.07      0.04      0.09         0.07
  H0024098                    0.29      0.30      0.34      0.27         0.25
  H0024235                    0.01      0.03      0.01      0.06         0.02
  H0024498                    0.05      0.29      0.05      0.33         0.24
  H0026990                    0.03      0.03      0.08      0.01         0.01
  H0041011                    0.25      0.25      0.30      0.09         0.07
  H0045105                    0.04      0.04      0.05      0.01         0.01
  H0045106                    0.05      0.05      0.07      0.01         0.01
  H0045107                    0.24      0.24      0.29      0.07         0.06
  H0045108                    0.29      0.29      0.32      0.21         0.20
  

  Analysis begun on:  Thu Mar 21 16:39:39 2024
  Analysis ended on:  Thu Mar 21 16:39:48 2024
  Total elapsed time: 00:00:09