
  EPA STORM WATER MANAGEMENT MODEL - VERSION 5.2 (Build 5.2.4)
  PYSWMM TOOLKIT API - VERSION v1.0 (2023-11-27)
  ------------------------------------------------------------

  Gievenbeck_2016-06-23 16 50 00_hN73 48 
  
  ****************
  Analysis Options
  ****************
  Flow Units ............... CMS
  Process Models:
    Rainfall/Runoff ........ YES
    RDII ................... NO
    Snowmelt ............... NO
    Groundwater ............ NO
    Flow Routing ........... YES
    Ponding Allowed ........ NO
    Water Quality .......... NO
  Infiltration Method ...... HORTON
  Flow Routing Method ...... DYNWAVE
  Surcharge Method ......... SLOT
  Starting Date ............ 01/01/2024 00:00:00
  Ending Date .............. 01/04/2024 04:00:00
  Antecedent Dry Days ...... 14.0
  Report Time Step ......... 00:01:00
  Wet Time Step ............ 00:01:00
  Dry Time Step ............ 00:01:00
  Routing Time Step ........ 1.00 sec
  Variable Time Step ....... YES
  Maximum Trials ........... 8
  Number of Threads ........ 1
  Head Tolerance ........... 0.001500 m
  
  
  **************************        Volume         Depth
  Runoff Quantity Continuity     hectare-m            mm
  **************************     ---------       -------
  Total Precipitation ......         0.744        73.480
  Evaporation Loss .........         0.012         1.194
  Infiltration Loss ........         0.375        37.006
  Surface Runoff ...........         0.358        35.351
  Final Storage ............         0.000         0.000
  Continuity Error (%) .....        -0.097
  
  
  **************************        Volume        Volume
  Flow Routing Continuity        hectare-m      10^6 ltr
  **************************     ---------     ---------
  Dry Weather Inflow .......         0.000         0.000
  Wet Weather Inflow .......         0.358         3.578
  Groundwater Inflow .......         0.000         0.000
  RDII Inflow ..............         0.000         0.000
  External Inflow ..........         0.000         0.000
  External Outflow .........         0.358         3.581
  Flooding Loss ............         0.000         0.000
  Evaporation Loss .........         0.000         0.000
  Exfiltration Loss ........         0.000         0.000
  Initial Stored Volume ....         0.000         0.000
  Final Stored Volume ......         0.000         0.000
  Continuity Error (%) .....        -0.069
  
  
  ***************************
  Time-Step Critical Elements
  ***************************
  None
  
  
  ********************************
  Highest Flow Instability Indexes
  ********************************
  All links are stable.
  
  
  *********************************
  Most Frequent Nonconverging Nodes
  *********************************
  Convergence obtained at all time steps.
  
  
  *************************
  Routing Time Step Summary
  *************************
  Minimum Time Step           :     0.50 sec
  Average Time Step           :     1.00 sec
  Maximum Time Step           :     1.00 sec
  % of Time in Steady State   :     0.00
  Average Iterations per Step :     2.00
  % of Steps Not Converging   :     0.00
  Time Step Frequencies       :
      1.000 -  0.871 sec      :   100.00 %
      0.871 -  0.758 sec      :     0.00 %
      0.758 -  0.660 sec      :     0.00 %
      0.660 -  0.574 sec      :     0.00 %
      0.574 -  0.500 sec      :     0.00 %
  
  
  ***************************
  Subcatchment Runoff Summary
  ***************************
  
  ------------------------------------------------------------------------------------------------------------------------------
                            Total      Total      Total      Total     Imperv       Perv      Total       Total     Peak  Runoff
                           Precip      Runon       Evap      Infil     Runoff     Runoff     Runoff      Runoff   Runoff   Coeff
  Subcatchment                 mm         mm         mm         mm         mm         mm         mm    10^6 ltr      CMS
  ------------------------------------------------------------------------------------------------------------------------------
  EZG_368                   73.48       0.00       1.19      37.23      35.63       4.85      35.13        0.15     0.06   0.478
  EZG_392                   73.48       0.00       1.18      37.13      35.64       4.96      35.25        0.11     0.05   0.480
  EZG_352                   73.48       0.00       1.19      37.39      35.62       4.69      34.96        0.21     0.09   0.476
  EZG_372                   73.48       0.00       1.17      36.80      35.66       5.29      35.61        0.05     0.02   0.485
  EZG_416                   73.48       0.00       1.18      37.08      35.64       5.00      35.29        0.10     0.05   0.480
  EZG_388                   73.48       0.00       1.19      37.27      35.62       4.81      35.09        0.16     0.07   0.478
  EZG_394                   73.48       0.00       1.18      37.06      35.64       5.02      35.31        0.10     0.05   0.481
  EZG_400                   73.48       0.00       1.18      37.04      35.64       5.05      35.34        0.09     0.04   0.481
  EZG_390                   73.48       0.00       1.18      37.12      35.64       4.96      35.26        0.11     0.05   0.480
  EZG_350                   73.48       0.00       1.19      37.27      35.62       4.80      35.08        0.16     0.07   0.477
  EZG_370                   73.48       0.00       1.18      37.17      35.63       4.91      35.20        0.13     0.06   0.479
  EZG_398                   73.48       0.00       1.17      36.70      35.67       5.40      35.72        0.04     0.02   0.486
  EZG_382                   73.48       0.00       1.17      36.66      35.68       5.44      35.77        0.03     0.02   0.487
  EZG_374                   73.48       0.00       1.42      30.78      42.74       5.02      41.35        0.16     0.07   0.563
  EZG_412                   73.48       0.00       1.16      36.42      35.71       5.69      36.04        0.01     0.01   0.491
  EZG_344                   73.48       0.00       1.18      37.03      35.64       5.06      35.35        0.09     0.04   0.481
  EZG_376                   73.48       0.00       1.18      36.94      35.65       5.15      35.45        0.07     0.03   0.482
  EZG_356                   73.48       0.00       1.19      37.43      35.61       4.65      34.92        0.22     0.09   0.475
  EZG_386                   73.48       0.00       1.20      37.53      35.61       4.54      34.80        0.28     0.11   0.474
  EZG_380                   73.48       0.00       1.19      37.20      35.63       4.88      35.16        0.14     0.06   0.479
  EZG_378                   73.48       0.00       1.18      37.15      35.63       4.93      35.22        0.12     0.05   0.479
  EZG_414                   73.48       0.00       1.17      36.66      35.68       5.44      35.77        0.03     0.02   0.487
  EZG_402                   73.48       0.00       1.18      37.13      35.64       4.95      35.24        0.11     0.05   0.480
  EZG_358                   73.48       0.00       1.19      37.42      35.61       4.65      34.92        0.22     0.09   0.475
  EZG_364                   73.48       0.00       1.19      37.42      35.61       4.65      34.92        0.22     0.09   0.475
  EZG_410                   73.48       0.00       1.18      36.96      35.65       5.13      35.43        0.07     0.04   0.482
  EZG_366                   73.48       0.00       1.18      37.01      35.65       5.08      35.38        0.08     0.04   0.481
  EZG_18259                 73.48       0.00       1.18      37.00      35.65       5.08      35.38        0.08     0.04   0.481
  EZG_18258                 73.48       0.00       1.16      36.55      35.69       5.56      35.90        0.02     0.01   0.489
  EZG_346                   73.48       0.00       1.16      37.81      34.92       4.89      34.58        0.13     0.06   0.471
  EZG_348                   73.48       0.00       1.15      37.62      34.94       5.10      34.79        0.08     0.04   0.474
  
  
  ******************
  Node Depth Summary
  ******************
  
  ---------------------------------------------------------------------------------
                                 Average  Maximum  Maximum  Time of Max    Reported
                                   Depth    Depth      HGL   Occurrence   Max Depth
  Node                 Type       Meters   Meters   Meters  days hr:min      Meters
  ---------------------------------------------------------------------------------
  R0019466             JUNCTION     0.01     0.69    70.14     0  03:50        0.68
  R0019468             JUNCTION     0.01     0.61    69.92     0  03:50        0.59
  R0019831             JUNCTION     0.00     0.71    69.88     0  03:50        0.71
  R0019825             JUNCTION     0.01     0.93    69.77     0  03:50        0.93
  R0019843             JUNCTION     0.01     0.50    68.13     0  03:52        0.50
  R0019368             JUNCTION     0.02     0.74    67.53     0  03:54        0.72
  R0019369             JUNCTION     0.01     0.54    67.13     0  03:52        0.53
  R0019370             JUNCTION     0.01     0.45    66.35     0  03:52        0.45
  R0019345             JUNCTION     0.01     0.40    70.30     0  03:50        0.39
  R0019346             JUNCTION     0.01     0.33    70.13     0  03:51        0.33
  R0043600             JUNCTION     0.01     0.39    70.06     0  03:51        0.39
  R0019203             JUNCTION     0.01     0.42    69.96     0  03:51        0.42
  R0043594             JUNCTION     0.01     0.29    70.02     0  03:52        0.29
  R0021458             JUNCTION     0.01     0.35    70.00     0  03:51        0.35
  R0019202             JUNCTION     0.01     0.39    69.97     0  03:51        0.39
  R0019373             JUNCTION     0.01     0.46    70.13     0  03:50        0.45
  R0019254             JUNCTION     0.01     0.69    70.73     0  03:50        0.65
  R0019716             JUNCTION     0.01     0.47    69.48     0  03:51        0.47
  R0019946             JUNCTION     0.02     0.65    69.27     0  03:51        0.65
  R0013935             JUNCTION     0.00     0.55    69.38     0  03:51        0.55
  R0019939             JUNCTION     0.01     0.74    69.31     0  03:51        0.74
  R0019944             JUNCTION     0.01     0.41    68.69     0  03:52        0.41
  R0043703             JUNCTION     0.01     0.50    69.10     0  03:52        0.50
  R0019945             JUNCTION     0.01     0.52    68.92     0  03:52        0.51
  R0039621             JUNCTION     0.00     0.18    69.75     0  03:50        0.17
  R0019838             JUNCTION     0.01     0.28    69.74     0  03:50        0.28
  R0039606             JUNCTION     0.01     0.38    69.97     0  03:51        0.38
  R0019204             JUNCTION     0.00     0.00    69.91     0  00:00        0.00
  R0019205             JUNCTION     0.00     0.00    69.62     0  00:00        0.00
  R0019849             JUNCTION     0.01     0.71    69.23     0  03:51        0.71
  R0019371             JUNCTION     0.00     0.00    70.41     0  00:00        0.00
  R0019718             JUNCTION     0.02     0.50    69.92     0  03:51        0.50
  R0021442             JUNCTION     0.01     1.57    71.62     0  03:50        1.57
  R0019247             JUNCTION     0.01     0.66    70.54     0  03:50        0.66
  R0019719             JUNCTION     0.01     0.33    70.01     0  03:51        0.33
  R0019767             JUNCTION     0.01     0.48    65.21     0  03:55        0.47
  R0019768             JUNCTION     0.01     0.40    64.17     0  03:55        0.40
  R0021453             JUNCTION     0.00     0.11    70.06     0  03:50        0.11
  R0019839             JUNCTION     0.01     0.26    69.65     0  03:50        0.26
  R0019717             JUNCTION     0.01     0.45    69.79     0  03:51        0.45
  R0019252             JUNCTION     0.01     0.70    70.89     0  03:50        0.66
  R0019721             JUNCTION     0.01     0.29    70.16     0  03:51        0.29
  R0019942             JUNCTION     0.01     0.68    69.33     0  03:51        0.68
  R0019206             JUNCTION     0.00     0.00    69.07     0  00:00        0.00
  R0019840             JUNCTION     0.01     0.23    69.20     0  03:50        0.23
  R0043702             JUNCTION     0.01     0.36    69.06     0  03:50        0.35
  R0019723             JUNCTION     0.00     0.17    70.25     0  03:50        0.17
  R0019724             JUNCTION     0.00     0.10    70.26     0  03:50        0.10
  R0021433             JUNCTION     0.01     1.61    72.00     0  03:50        1.61
  R0021435             JUNCTION     0.01     1.69    71.87     0  03:50        1.69
  R0019769             OUTFALL      0.01     0.40    63.78     0  03:53        0.40
  
  
  *******************
  Node Inflow Summary
  *******************
  
  -------------------------------------------------------------------------------------------------
                                  Maximum  Maximum                  Lateral       Total        Flow
                                  Lateral    Total  Time of Max      Inflow      Inflow     Balance
                                   Inflow   Inflow   Occurrence      Volume      Volume       Error
  Node                 Type           CMS      CMS  days hr:min    10^6 ltr    10^6 ltr     Percent
  -------------------------------------------------------------------------------------------------
  R0019466             JUNCTION     0.064    0.082     0  03:47       0.145       0.255       0.030
  R0019468             JUNCTION     0.040    0.108     0  03:50      0.0847       0.339       0.001
  R0019831             JUNCTION     0.052    0.052     0  03:50       0.114       0.114      -0.014
  R0019825             JUNCTION     0.052    0.096     0  03:50       0.115       0.229       0.065
  R0019843             JUNCTION     0.000    1.395     0  03:52           0        3.58      -0.009
  R0019368             JUNCTION     0.000    1.396     0  03:52           0        3.58       0.008
  R0019369             JUNCTION     0.000    1.449     0  03:52           0        3.58      -0.006
  R0019370             JUNCTION     0.000    1.421     0  03:52           0        3.58       0.006
  R0019345             JUNCTION     0.000    0.097     0  03:50           0       0.224       0.043
  R0019346             JUNCTION     0.008    0.162     0  03:50      0.0144       0.375       0.026
  R0043600             JUNCTION     0.000    0.175     0  03:50           0       0.431       0.045
  R0019203             JUNCTION     0.017    0.412     0  03:51      0.0316       0.984      -0.010
  R0043594             JUNCTION     0.087    0.128     0  03:50       0.207       0.296      -0.137
  R0021458             JUNCTION     0.070    0.184     0  03:50       0.161       0.457      -0.019
  R0019202             JUNCTION     0.024    0.225     0  03:52      0.0482       0.522      -0.113
  R0019373             JUNCTION     0.057    0.057     0  03:50       0.126       0.126       0.498
  R0019254             JUNCTION     0.047    0.097     0  03:50       0.103       0.224       0.003
  R0019716             JUNCTION     0.070    0.822     0  03:51        0.16        2.01      -0.021
  R0019946             JUNCTION     0.000    0.824     0  03:51           0        2.01       0.011
  R0013935             JUNCTION     0.045    0.045     0  03:50       0.098       0.098      -0.042
  R0019939             JUNCTION     0.018    0.061     0  03:49      0.0354       0.133      -0.019
  R0019944             JUNCTION     0.042    1.048     0  03:52       0.091        2.58       0.005
  R0043703             JUNCTION     0.051    0.872     0  03:52       0.112        2.12       0.014
  R0019945             JUNCTION     0.000    1.013     0  03:52           0        2.48      -0.006
  R0039621             JUNCTION     0.000    0.005     0  03:46           0     0.00193       1.445
  R0019838             JUNCTION     0.093    0.093     0  03:50       0.224       0.226      -0.016
  R0039606             JUNCTION     0.000    0.171     0  03:53           0       0.458       0.093
  R0019204             JUNCTION     0.000    0.000     0  00:00           0           0       0.000 ltr
  R0019205             JUNCTION     0.000    0.000     0  00:00           0           0       0.000 ltr
  R0019849             JUNCTION     0.000    0.149     0  03:50           0       0.362       0.014
  R0019371             JUNCTION     0.000    0.000     0  00:00           0           0       0.000 ltr
  R0019718             JUNCTION     0.061    0.466     0  03:51       0.137        1.12      -0.868
  R0021442             JUNCTION     0.069    0.146     0  03:50       0.157        0.36       0.012
  R0019247             JUNCTION     0.034    0.175     0  03:50      0.0707       0.431      -0.035
  R0019719             JUNCTION     0.036    0.192     0  03:51      0.0744       0.449       0.155
  R0019767             JUNCTION     0.000    1.404     0  03:52           0        3.58      -0.007
  R0019768             JUNCTION     0.000    1.399     0  03:52           0        3.58       0.014
  R0021453             JUNCTION     0.042    0.042     0  03:50      0.0894      0.0894       0.003
  R0019839             JUNCTION     0.092    0.177     0  03:50       0.221       0.445      -0.019
  R0019717             JUNCTION     0.113    0.759     0  03:51       0.278        1.86       0.353
  R0019252             JUNCTION     0.054    0.054     0  03:50       0.121       0.121      -0.089
  R0019721             JUNCTION     0.016    0.065     0  03:50      0.0311       0.137       0.024
  R0019942             JUNCTION     0.000    0.094     0  03:50           0       0.229      -0.059
  R0019206             JUNCTION     0.000    0.000     0  00:00           0           0       0.000 ltr
  R0019840             JUNCTION     0.000    0.283     0  03:50           0       0.784       0.014
  R0043702             JUNCTION     0.093    0.370     0  03:50       0.221        1.01      -0.006
  R0019723             JUNCTION     0.040    0.051     0  03:50      0.0841       0.106      -0.104
  R0019724             JUNCTION     0.012    0.012     0  03:50       0.022       0.022      -0.132
  R0021433             JUNCTION     0.056    0.056     0  03:50       0.126       0.126      -0.134
  R0021435             JUNCTION     0.037    0.084     0  03:50      0.0774       0.203       0.020
  R0019769             OUTFALL      0.000    1.400     0  03:53           0        3.58       0.000
  
  
  **********************
  Node Surcharge Summary
  **********************
  
  Surcharging occurs when water rises above the top of the highest conduit.
  ---------------------------------------------------------------------
                                               Max. Height   Min. Depth
                                   Hours       Above Crown    Below Rim
  Node                 Type      Surcharged         Meters       Meters
  ---------------------------------------------------------------------
  R0019466             JUNCTION        0.19          0.386        2.124
  R0019468             JUNCTION        0.18          0.306        2.124
  R0019831             JUNCTION        0.11          0.413        0.947
  R0019825             JUNCTION        0.16          0.630        0.570
  R0019345             JUNCTION        0.11          0.100        1.650
  R0019373             JUNCTION        0.12          0.160        2.340
  R0019254             JUNCTION        0.14          0.389        1.441
  R0013935             JUNCTION        0.12          0.250        1.070
  R0019939             JUNCTION        0.18          0.439        1.181
  R0019849             JUNCTION        0.20          0.414        1.516
  R0021442             JUNCTION        0.22          1.266        0.484
  R0019247             JUNCTION        0.12          0.260        1.600
  R0019252             JUNCTION        0.12          0.405        1.235
  R0019942             JUNCTION        0.16          0.384        1.266
  R0021433             JUNCTION        0.16          1.312        0.538
  R0021435             JUNCTION        0.18          1.394        0.416
  
  
  *********************
  Node Flooding Summary
  *********************
  
  No nodes were flooded.
  
  
  ***********************
  Outfall Loading Summary
  ***********************
  
  -----------------------------------------------------------
                         Flow       Avg       Max       Total
                         Freq      Flow      Flow      Volume
  Outfall Node           Pcnt       CMS       CMS    10^6 ltr
  -----------------------------------------------------------
  R0019769              20.44     0.064     1.400       3.581
  -----------------------------------------------------------
  System                20.44     0.064     1.400       3.581
  
  
  ********************
  Link Flow Summary
  ********************
  
  -----------------------------------------------------------------------------
                                 Maximum  Time of Max   Maximum    Max/    Max/
                                  |Flow|   Occurrence   |Veloc|    Full    Full
  Link                 Type          CMS  days hr:min     m/sec    Flow   Depth
  -----------------------------------------------------------------------------
  H0014431             CONDUIT     0.071     0  03:47      1.00    1.31    1.00
  H0014433             CONDUIT     0.047     0  03:50      0.72    0.60    1.00
  H0014352             CONDUIT     1.396     0  03:52      3.08    0.57    0.68
  H0014373             CONDUIT     1.421     0  03:52      4.01    0.66    0.55
  H0017981             CONDUIT     0.097     0  03:50      1.37    2.75    1.00
  H0017755             CONDUIT     0.175     0  03:51      1.45    1.42    0.92
  H0017791             CONDUIT     0.117     0  03:50      0.63    0.17    0.36
  H0017357             CONDUIT     0.050     0  03:50      0.71    0.81    1.00
  H0018216             CONDUIT     0.097     0  03:50      1.37    1.77    1.00
  H0016792             CONDUIT     0.824     0  03:51      2.00    0.47    0.62
  H0019507             CONDUIT     0.043     0  03:49      0.69    0.59    1.00
  H0019998             CONDUIT     1.049     0  03:52      3.27    0.42    0.50
  H0019576             CONDUIT     0.873     0  03:52      2.35    0.59    0.57
  H0020087             CONDUIT     0.005     0  03:46      0.14    0.02    0.46
  H0020211             CONDUIT     0.830     0  03:52      1.94    2.07    0.64
  H0018982             CONDUIT     0.171     0  03:53      0.80    0.27    0.41
  H0018753             CONDUIT     0.036     0  03:47      0.61    0.51    1.00
  H0018845             CONDUIT     0.000     0  00:00      0.00    0.00    0.00
  H0018863             CONDUIT     0.056     0  03:50      0.80    1.32    1.00
  H0019156             CONDUIT     0.000     0  00:00      0.00    0.00    0.00
  H0018929             CONDUIT     0.414     0  03:51      1.27    0.36    0.51
  H0018440             CONDUIT     0.145     0  03:51      2.05    2.60    1.00
  H0018456             CONDUIT     0.162     0  03:51      1.47    0.98    0.82
  H0018968             CONDUIT     1.399     0  03:52      4.56    0.54    0.49
  H0022036             CONDUIT     0.041     0  03:50      0.50    0.03    0.20
  H0021806             CONDUIT     0.175     0  03:50      1.39    1.55    1.00
  H0022111             CONDUIT     0.088     0  03:51      0.82    0.63    0.54
  H0021440             CONDUIT     0.763     0  03:51      2.35    0.49    0.51
  H0021704             CONDUIT     0.469     0  03:52      1.46    0.89    0.51
  H0020521             CONDUIT     0.052     0  03:50      0.74    1.06    1.00
  H0020755             CONDUIT     0.061     0  03:51      0.61    0.68    0.77
  H0020530             CONDUIT     1.449     0  03:52      3.08    1.24    0.70
  H0020618             CONDUIT     1.013     0  03:52      3.07    0.63    0.51
  H0021163             CONDUIT     0.094     0  03:50      1.33    1.57    1.00
  H0020497             CONDUIT     0.000     0  00:00      0.00    0.00    0.83
  H0024325             CONDUIT     0.176     0  03:50      1.84    0.53    0.49
  H0023585             CONDUIT     0.370     0  03:50      2.49    0.85    0.71
  H0024098             CONDUIT     0.148     0  03:50      2.09    1.73    1.00
  H0024235             CONDUIT     0.193     0  03:51      1.46    0.79    0.64
  H0024282             CONDUIT     0.000     0  00:00      0.00    0.00    0.00
  H0024308             CONDUIT     1.400     0  03:53      5.10    0.41    0.45
  H0024498             CONDUIT     0.108     0  03:50      1.52    1.67    1.00
  H0026990             CONDUIT     0.050     0  03:50      0.73    0.37    0.57
  H0041650             CONDUIT     0.226     0  03:52      0.84    0.26    0.45
  H0041011             CONDUIT     0.093     0  03:50      1.31    0.92    1.00
  H0045103             CONDUIT     0.172     0  03:54      0.75    0.22    0.43
  H0045104             CONDUIT     1.404     0  03:52      4.28    0.50    0.51
  H0045105             CONDUIT     0.012     0  03:50      0.39    0.20    0.45
  H0045106             CONDUIT     0.283     0  03:50      2.36    0.38    0.59
  H0045107             CONDUIT     0.050     0  03:50      0.71    0.83    1.00
  H0045108             CONDUIT     0.083     0  03:51      1.17    1.49    1.00
  
  
  ***************************
  Flow Classification Summary
  ***************************
  
  -------------------------------------------------------------------------------------
                      Adjusted    ---------- Fraction of Time in Flow Class ---------- 
                       /Actual         Up    Down  Sub   Sup   Up    Down  Norm  Inlet 
  Conduit               Length    Dry  Dry   Dry   Crit  Crit  Crit  Crit  Ltd   Ctrl  
  -------------------------------------------------------------------------------------
  H0014431                1.00   0.04  0.00  0.00  0.96  0.00  0.00  0.00  0.94  0.00
  H0014433                1.00   0.04  0.00  0.00  0.96  0.00  0.00  0.00  0.96  0.00
  H0014352                1.00   0.04  0.00  0.00  0.83  0.13  0.00  0.00  0.96  0.00
  H0014373                1.00   0.04  0.00  0.00  0.77  0.19  0.00  0.00  0.75  0.00
  H0017981                1.00   0.04  0.00  0.00  0.00  0.00  0.00  0.96  0.00  0.00
  H0017755                1.00   0.04  0.00  0.00  0.00  0.00  0.00  0.96  0.00  0.00
  H0017791                1.00   0.04  0.00  0.00  0.96  0.00  0.00  0.00  0.95  0.00
  H0017357                1.00   0.04  0.96  0.00  0.00  0.00  0.00  0.00  0.95  0.00
  H0018216                1.00   0.04  0.76  0.00  0.21  0.00  0.00  0.00  0.95  0.00
  H0016792                1.00   0.04  0.75  0.00  0.21  0.00  0.00  0.00  0.96  0.00
  H0019507                1.00   0.04  0.00  0.00  0.96  0.00  0.00  0.00  0.96  0.00
  H0019998                1.00   0.04  0.00  0.00  0.78  0.19  0.00  0.00  0.21  0.00
  H0019576                1.00   0.04  0.00  0.00  0.86  0.11  0.00  0.00  0.19  0.00
  H0020087                1.00   0.04  0.91  0.00  0.05  0.00  0.00  0.00  0.95  0.00
  H0020211                1.00   0.04  0.00  0.00  0.96  0.00  0.00  0.00  0.74  0.00
  H0018982                1.00   0.04  0.00  0.00  0.96  0.00  0.00  0.00  0.80  0.00
  H0018753                1.00   0.04  0.00  0.00  0.96  0.00  0.00  0.00  0.96  0.00
  H0018845                1.00   1.00  0.00  0.00  0.00  0.00  0.00  0.00  0.00  0.00
  H0018863                1.00   0.04  0.00  0.00  0.96  0.00  0.00  0.00  0.94  0.00
  H0019156                1.00   1.00  0.00  0.00  0.00  0.00  0.00  0.00  0.00  0.00
  H0018929                1.00   0.04  0.75  0.00  0.21  0.00  0.00  0.00  0.96  0.00
  H0018440                1.00   0.04  0.00  0.00  0.96  0.00  0.00  0.00  0.93  0.00
  H0018456                1.00   0.04  0.00  0.00  0.96  0.00  0.00  0.00  0.94  0.00
  H0018968                1.00   0.04  0.74  0.00  0.02  0.20  0.00  0.00  0.77  0.00
  H0022036                1.00   0.04  0.00  0.00  0.06  0.02  0.00  0.89  0.05  0.00
  H0021806                1.00   0.04  0.75  0.00  0.21  0.00  0.00  0.00  0.89  0.00
  H0022111                1.00   0.04  0.00  0.00  0.96  0.00  0.00  0.00  0.01  0.00
  H0021440                1.00   0.04  0.00  0.00  0.84  0.13  0.00  0.00  0.08  0.00
  H0021704                1.00   0.04  0.00  0.00  0.00  0.00  0.00  0.96  0.00  0.00
  H0020521                1.00   0.04  0.00  0.00  0.96  0.00  0.00  0.00  0.96  0.00
  H0020755                1.00   0.04  0.77  0.00  0.19  0.00  0.00  0.00  0.95  0.00
  H0020530                1.00   0.04  0.00  0.00  0.84  0.12  0.00  0.00  0.04  0.00
  H0020618                1.00   0.04  0.00  0.00  0.80  0.16  0.00  0.00  0.80  0.00
  H0021163                1.00   0.04  0.00  0.00  0.92  0.04  0.00  0.00  0.79  0.00
  H0020497                1.20   0.04  0.96  0.00  0.00  0.00  0.00  0.00  0.00  0.00
  H0024325                1.00   0.04  0.00  0.00  0.83  0.13  0.00  0.00  0.79  0.00
  H0023585                1.00   0.04  0.00  0.00  0.00  0.00  0.00  0.96  0.00  0.00
  H0024098                1.00   0.04  0.76  0.00  0.20  0.00  0.00  0.00  0.95  0.00
  H0024235                1.00   0.04  0.00  0.00  0.00  0.00  0.00  0.96  0.00  0.00
  H0024282                1.00   1.00  0.00  0.00  0.00  0.00  0.00  0.00  0.00  0.00
  H0024308                1.00   0.04  0.00  0.00  0.74  0.22  0.00  0.00  0.07  0.00
  H0024498                1.00   0.04  0.00  0.00  0.00  0.00  0.00  0.96  0.00  0.00
  H0026990                1.00   0.04  0.00  0.00  0.96  0.00  0.00  0.00  0.96  0.00
  H0041650                1.00   0.79  0.02  0.00  0.19  0.00  0.00  0.00  0.92  0.00
  H0041011                1.00   0.04  0.00  0.00  0.96  0.01  0.00  0.00  0.94  0.00
  H0045103                1.00   0.04  0.00  0.00  0.96  0.00  0.00  0.00  0.85  0.00
  H0045104                1.00   0.04  0.00  0.00  0.76  0.20  0.00  0.00  0.20  0.00
  H0045105                1.00   0.04  0.00  0.00  0.96  0.00  0.00  0.00  0.96  0.00
  H0045106                1.00   0.04  0.76  0.00  0.06  0.15  0.00  0.00  0.96  0.00
  H0045107                1.00   0.04  0.00  0.00  0.96  0.00  0.00  0.00  0.95  0.00
  H0045108                1.00   0.04  0.00  0.00  0.96  0.00  0.00  0.00  0.96  0.00
  
  
  *************************
  Conduit Surcharge Summary
  *************************
  
  ----------------------------------------------------------------------------
                                                           Hours        Hours 
                         --------- Hours Full --------   Above Full   Capacity
  Conduit                Both Ends  Upstream  Dnstream   Normal Flow   Limited
  ----------------------------------------------------------------------------
  H0014431                    0.18      0.19      0.18      0.21         0.18
  H0014433                    0.11      0.11      0.16      0.01         0.01
  H0017981                    0.01      0.11      0.01      0.27         0.04
  H0017755                    0.01      0.01      0.01      0.14         0.01
  H0017357                    0.01      0.01      0.12      0.01         0.01
  H0018216                    0.11      0.14      0.11      0.17         0.13
  H0019507                    0.12      0.12      0.18      0.01         0.01
  H0020211                    0.01      0.01      0.01      0.19         0.01
  H0018753                    0.12      0.12      0.19      0.01         0.01
  H0018863                    0.18      0.18      0.20      0.12         0.12
  H0018440                    0.16      0.22      0.16      0.29         0.19
  H0021806                    0.01      0.12      0.01      0.15         0.11
  H0020521                    0.12      0.12      0.14      0.02         0.02
  H0020530                    0.01      0.01      0.01      0.10         0.01
  H0021163                    0.15      0.16      0.16      0.16         0.14
  H0024098                    0.20      0.20      0.26      0.16         0.16
  H0024498                    0.01      0.18      0.01      0.24         0.15
  H0041011                    0.16      0.16      0.20      0.01         0.01
  H0045107                    0.16      0.16      0.18      0.01         0.01
  H0045108                    0.18      0.18      0.22      0.15         0.15
  

  Analysis begun on:  Fri Mar 22 15:54:40 2024
  Analysis ended on:  Fri Mar 22 15:54:50 2024
  Total elapsed time: 00:00:10