
  EPA STORM WATER MANAGEMENT MODEL - VERSION 5.2 (Build 5.2.4)
  PYSWMM TOOLKIT API - VERSION v1.0 (2023-11-27)
  ------------------------------------------------------------


  Analysis begun on:  Thu Mar 21 17:35:57 2024
  Analysis ended on:  Thu Mar 21 17:35:57 2024
  Total elapsed time: < 1 sec