
  EPA STORM WATER MANAGEMENT MODEL - VERSION 5.2 (Build 5.2.4)
  PYSWMM TOOLKIT API - VERSION v1.0 (2023-11-27)
  ------------------------------------------------------------

  
  ****************
  Analysis Options
  ****************
  Flow Units ............... CMS
  Process Models:
    Rainfall/Runoff ........ YES
    RDII ................... NO
    Snowmelt ............... NO
    Groundwater ............ NO
    Flow Routing ........... YES
    Ponding Allowed ........ NO
    Water Quality .......... NO
  Infiltration Method ...... HORTON
  Flow Routing Method ...... DYNWAVE
  Surcharge Method ......... SLOT
  Starting Date ............ 01/01/2024 00:00:00
  Ending Date .............. 01/08/2024 04:00:00
  Antecedent Dry Days ...... 14.0
  Report Time Step ......... 00:01:00
  Wet Time Step ............ 00:01:00
  Dry Time Step ............ 00:01:00
  Routing Time Step ........ 1.00 sec
  Variable Time Step ....... YES
  Maximum Trials ........... 8
  Number of Threads ........ 4
  Head Tolerance ........... 0.001500 m
  
  
  **************************        Volume         Depth
  Runoff Quantity Continuity     hectare-m            mm
  **************************     ---------       -------
  Total Precipitation ......         0.101        10.000
  Evaporation Loss .........         0.010         0.957
  Infiltration Loss ........         0.057         5.584
  Surface Runoff ...........         0.035         3.487
  Final Storage ............         0.000         0.000
  Continuity Error (%) .....        -0.279
  
  
  **************************        Volume        Volume
  Flow Routing Continuity        hectare-m      10^6 ltr
  **************************     ---------     ---------
  Dry Weather Inflow .......         0.000         0.000
  Wet Weather Inflow .......         0.035         0.353
  Groundwater Inflow .......         0.000         0.000
  RDII Inflow ..............         0.000         0.000
  External Inflow ..........         0.000         0.000
  External Outflow .........         0.035         0.354
  Flooding Loss ............         0.000         0.000
  Evaporation Loss .........         0.000         0.000
  Exfiltration Loss ........         0.000         0.000
  Initial Stored Volume ....         0.000         0.000
  Final Stored Volume ......         0.000         0.000
  Continuity Error (%) .....        -0.398
  
  
  *************************
  Highest Continuity Errors
  *************************
  Node R0019718 (-2.98%)
  Node R0019717 (1.05%)
  
  
  ***************************
  Time-Step Critical Elements
  ***************************
  None
  
  
  ********************************
  Highest Flow Instability Indexes
  ********************************
  All links are stable.
  
  
  *********************************
  Most Frequent Nonconverging Nodes
  *********************************
  Convergence obtained at all time steps.
  
  
  *************************
  Routing Time Step Summary
  *************************
  Minimum Time Step           :     0.50 sec
  Average Time Step           :     1.00 sec
  Maximum Time Step           :     1.00 sec
  % of Time in Steady State   :     0.00
  Average Iterations per Step :     2.00
  % of Steps Not Converging   :     0.00
  Time Step Frequencies       :
      1.000 -  0.871 sec      :   100.00 %
      0.871 -  0.758 sec      :     0.00 %
      0.758 -  0.660 sec      :     0.00 %
      0.660 -  0.574 sec      :     0.00 %
      0.574 -  0.500 sec      :     0.00 %
  
  
  ***************************
  Subcatchment Runoff Summary
  ***************************
  
  ------------------------------------------------------------------------------------------------------------------------------
                            Total      Total      Total      Total     Imperv       Perv      Total       Total     Peak  Runoff
                           Precip      Runon       Evap      Infil     Runoff     Runoff     Runoff      Runoff   Runoff   Coeff
  Subcatchment                 mm         mm         mm         mm         mm         mm         mm    10^6 ltr      CMS
  ------------------------------------------------------------------------------------------------------------------------------
  EZG_368                   10.00       0.00       0.95       5.61       4.08       0.00       3.46        0.01     0.03   0.346
  EZG_392                   10.00       0.00       0.95       5.61       4.08       0.00       3.47        0.01     0.02   0.347
  EZG_352                   10.00       0.00       0.96       5.61       4.07       0.00       3.46        0.02     0.04   0.346
  EZG_372                   10.00       0.00       0.94       5.62       4.10       0.00       3.49        0.00     0.01   0.349
  EZG_416                   10.00       0.00       0.95       5.61       4.08       0.00       3.47        0.01     0.02   0.347
  EZG_388                   10.00       0.00       0.95       5.61       4.07       0.00       3.46        0.02     0.03   0.346
  EZG_394                   10.00       0.00       0.95       5.61       4.09       0.00       3.47        0.01     0.02   0.347
  EZG_400                   10.00       0.00       0.94       5.61       4.09       0.00       3.47        0.01     0.02   0.347
  EZG_390                   10.00       0.00       0.95       5.61       4.08       0.00       3.47        0.01     0.02   0.347
  EZG_350                   10.00       0.00       0.95       5.61       4.07       0.00       3.46        0.02     0.03   0.346
  EZG_370                   10.00       0.00       0.95       5.61       4.08       0.00       3.47        0.01     0.03   0.347
  EZG_398                   10.00       0.00       0.93       5.62       4.11       0.00       3.49        0.00     0.01   0.349
  EZG_382                   10.00       0.00       0.93       5.62       4.11       0.00       3.50        0.00     0.01   0.350
  EZG_374                   10.00       0.00       1.15       4.73       4.88       0.00       4.15        0.02     0.03   0.415
  EZG_412                   10.00       0.00       0.93       5.62       4.13       0.00       3.51        0.00     0.00   0.351
  EZG_344                   10.00       0.00       0.94       5.61       4.09       0.00       3.47        0.01     0.02   0.347
  EZG_376                   10.00       0.00       0.94       5.61       4.09       0.00       3.48        0.01     0.02   0.348
  EZG_356                   10.00       0.00       0.96       5.61       4.06       0.00       3.45        0.02     0.04   0.345
  EZG_386                   10.00       0.00       0.96       5.61       4.06       0.00       3.45        0.03     0.05   0.345
  EZG_380                   10.00       0.00       0.95       5.61       4.08       0.00       3.47        0.01     0.03   0.347
  EZG_378                   10.00       0.00       0.95       5.61       4.08       0.00       3.47        0.01     0.02   0.347
  EZG_414                   10.00       0.00       0.93       5.62       4.11       0.00       3.50        0.00     0.01   0.350
  EZG_402                   10.00       0.00       0.95       5.61       4.08       0.00       3.47        0.01     0.02   0.347
  EZG_358                   10.00       0.00       0.96       5.61       4.06       0.00       3.45        0.02     0.04   0.345
  EZG_364                   10.00       0.00       0.96       5.61       4.06       0.00       3.45        0.02     0.04   0.345
  EZG_410                   10.00       0.00       0.94       5.61       4.09       0.00       3.48        0.01     0.02   0.348
  EZG_366                   10.00       0.00       0.94       5.61       4.09       0.00       3.48        0.01     0.02   0.348
  EZG_18259                 10.00       0.00       0.94       5.61       4.09       0.00       3.48        0.01     0.02   0.348
  EZG_18258                 10.00       0.00       0.93       5.62       4.12       0.00       3.50        0.00     0.01   0.350
  EZG_346                   10.00       0.00       0.93       5.70       4.00       0.00       3.40        0.01     0.03   0.340
  EZG_348                   10.00       0.00       0.92       5.70       4.01       0.00       3.41        0.01     0.02   0.341
  
  
  ******************
  Node Depth Summary
  ******************
  
  ---------------------------------------------------------------------------------
                                 Average  Maximum  Maximum  Time of Max    Reported
                                   Depth    Depth      HGL   Occurrence   Max Depth
  Node                 Type       Meters   Meters   Meters  days hr:min      Meters
  ---------------------------------------------------------------------------------
  R0019466             JUNCTION     0.00     0.21    69.66     0  02:10        0.21
  R0019468             JUNCTION     0.00     0.22    69.53     0  02:11        0.21
  R0019831             JUNCTION     0.00     0.11    69.28     0  02:10        0.11
  R0019825             JUNCTION     0.00     0.18    69.02     0  02:10        0.18
  R0019843             JUNCTION     0.00     0.27    67.90     0  02:13        0.27
  R0019368             JUNCTION     0.00     0.39    67.18     0  02:14        0.39
  R0019369             JUNCTION     0.00     0.29    66.88     0  02:14        0.28
  R0019370             JUNCTION     0.00     0.25    66.15     0  02:14        0.24
  R0019345             JUNCTION     0.00     0.19    70.09     0  02:11        0.19
  R0019346             JUNCTION     0.00     0.18    69.98     0  02:11        0.17
  R0043600             JUNCTION     0.00     0.20    69.87     0  02:12        0.20
  R0019203             JUNCTION     0.00     0.22    69.76     0  02:12        0.21
  R0043594             JUNCTION     0.00     0.16    69.89     0  02:10        0.16
  R0021458             JUNCTION     0.00     0.20    69.85     0  02:11        0.20
  R0019202             JUNCTION     0.00     0.19    69.77     0  02:12        0.19
  R0019373             JUNCTION     0.00     0.12    69.79     0  02:10        0.11
  R0019254             JUNCTION     0.00     0.19    70.23     0  02:10        0.19
  R0019716             JUNCTION     0.00     0.24    69.25     0  02:12        0.24
  R0019946             JUNCTION     0.00     0.37    68.99     0  02:13        0.37
  R0013935             JUNCTION     0.00     0.11    68.94     0  02:10        0.10
  R0019939             JUNCTION     0.00     0.17    68.74     0  02:10        0.17
  R0019944             JUNCTION     0.00     0.22    68.50     0  02:13        0.22
  R0043703             JUNCTION     0.00     0.27    68.87     0  02:13        0.27
  R0019945             JUNCTION     0.00     0.28    68.68     0  02:13        0.28
  R0039621             JUNCTION     0.00     0.07    69.64     0  02:10        0.07
  R0019838             JUNCTION     0.00     0.17    69.63     0  02:11        0.16
  R0039606             JUNCTION     0.00     0.19    69.78     0  02:12        0.18
  R0019204             JUNCTION     0.00     0.00    69.91     0  00:00        0.00
  R0019205             JUNCTION     0.00     0.00    69.62     0  00:00        0.00
  R0019849             JUNCTION     0.00     0.19    68.71     0  02:11        0.19
  R0019371             JUNCTION     0.00     0.00    70.41     0  00:00        0.00
  R0019718             JUNCTION     0.00     0.29    69.71     0  02:13        0.29
  R0021442             JUNCTION     0.00     0.25    70.30     0  02:11        0.25
  R0019247             JUNCTION     0.00     0.23    70.11     0  02:11        0.22
  R0019719             JUNCTION     0.00     0.19    69.87     0  02:11        0.19
  R0019767             JUNCTION     0.00     0.26    64.99     0  02:14        0.26
  R0019768             JUNCTION     0.00     0.22    63.99     0  02:14        0.22
  R0021453             JUNCTION     0.00     0.07    70.02     0  02:10        0.07
  R0019839             JUNCTION     0.00     0.15    69.54     0  02:10        0.15
  R0019717             JUNCTION     0.00     0.24    69.58     0  02:12        0.24
  R0019252             JUNCTION     0.00     0.14    70.33     0  02:10        0.14
  R0019721             JUNCTION     0.00     0.14    70.01     0  02:10        0.14
  R0019942             JUNCTION     0.00     0.14    68.79     0  02:11        0.14
  R0019206             JUNCTION     0.00     0.00    69.07     0  00:00        0.00
  R0019840             JUNCTION     0.00     0.14    69.11     0  02:11        0.13
  R0043702             JUNCTION     0.00     0.20    68.90     0  02:11        0.20
  R0019723             JUNCTION     0.00     0.11    70.19     0  02:10        0.11
  R0019724             JUNCTION     0.00     0.06    70.22     0  02:10        0.06
  R0021433             JUNCTION     0.00     0.13    70.52     0  02:10        0.13
  R0021435             JUNCTION     0.00     0.17    70.35     0  02:10        0.17
  R0019769             OUTFALL      0.00     0.22    63.60     0  02:14        0.22
  
  
  *******************
  Node Inflow Summary
  *******************
  
  -------------------------------------------------------------------------------------------------
                                  Maximum  Maximum                  Lateral       Total        Flow
                                  Lateral    Total  Time of Max      Inflow      Inflow     Balance
                                   Inflow   Inflow   Occurrence      Volume      Volume       Error
  Node                 Type           CMS      CMS  days hr:min    10^6 ltr    10^6 ltr     Percent
  -------------------------------------------------------------------------------------------------
  R0019466             JUNCTION     0.028    0.050     0  02:10      0.0143      0.0268      -0.032
  R0019468             JUNCTION     0.018    0.061     0  02:10     0.00832      0.0351       0.038
  R0019831             JUNCTION     0.023    0.023     0  02:10      0.0112      0.0112      -0.240
  R0019825             JUNCTION     0.023    0.045     0  02:10      0.0113      0.0225      -0.036
  R0019843             JUNCTION     0.000    0.465     0  02:13           0       0.354      -0.040
  R0019368             JUNCTION     0.000    0.464     0  02:13           0       0.355      -0.001
  R0019369             JUNCTION     0.000    0.460     0  02:14           0       0.355       0.001
  R0019370             JUNCTION     0.000    0.461     0  02:14           0       0.355       0.013
  R0019345             JUNCTION     0.000    0.039     0  02:10           0      0.0221       0.234
  R0019346             JUNCTION     0.004    0.064     0  02:11      0.0014      0.0369       0.097
  R0043600             JUNCTION     0.000    0.067     0  02:11           0      0.0427       0.289
  R0019203             JUNCTION     0.008    0.139     0  02:12     0.00309      0.0956      -0.010
  R0043594             JUNCTION     0.037    0.054     0  02:10      0.0204      0.0292      -0.666
  R0021458             JUNCTION     0.030    0.074     0  02:10      0.0159      0.0452      -0.032
  R0019202             JUNCTION     0.011    0.070     0  02:12     0.00472        0.05      -0.052
  R0019373             JUNCTION     0.025    0.025     0  02:10      0.0124      0.0124      -0.112
  R0019254             JUNCTION     0.021    0.042     0  02:10      0.0101       0.022      -0.109
  R0019716             JUNCTION     0.030    0.268     0  02:13      0.0158       0.198      -0.081
  R0019946             JUNCTION     0.000    0.268     0  02:13           0       0.198       0.096
  R0013935             JUNCTION     0.020    0.020     0  02:10     0.00963     0.00963      -0.285
  R0019939             JUNCTION     0.009    0.028     0  02:10     0.00346      0.0131      -0.010
  R0019944             JUNCTION     0.019    0.340     0  02:13     0.00895       0.253      -0.000
  R0043703             JUNCTION     0.023    0.285     0  02:13       0.011       0.209      -0.007
  R0019945             JUNCTION     0.000    0.331     0  02:13           0       0.244       0.005
  R0039621             JUNCTION     0.000    0.004     0  02:10           0    0.000334       2.401
  R0019838             JUNCTION     0.039    0.039     0  02:10      0.0221      0.0225      -0.045
  R0039606             JUNCTION     0.000    0.068     0  02:11           0      0.0454       0.311
  R0019204             JUNCTION     0.000    0.000     0  00:00           0           0       0.000 ltr
  R0019205             JUNCTION     0.000    0.000     0  00:00           0           0       0.000 ltr
  R0019849             JUNCTION     0.000    0.064     0  02:10           0      0.0356       0.059
  R0019371             JUNCTION     0.000    0.000     0  00:00           0           0       0.000 ltr
  R0019718             JUNCTION     0.027    0.155     0  02:12      0.0135       0.109      -2.895
  R0021442             JUNCTION     0.029    0.061     0  02:10      0.0157      0.0357      -0.024
  R0019247             JUNCTION     0.016    0.069     0  02:10     0.00694      0.0426      -0.270
  R0019719             JUNCTION     0.016    0.074     0  02:11      0.0073      0.0442      -0.052
  R0019767             JUNCTION     0.000    0.460     0  02:14           0       0.354      -0.004
  R0019768             JUNCTION     0.000    0.461     0  02:14           0       0.354       0.040
  R0021453             JUNCTION     0.019    0.019     0  02:10     0.00879     0.00879       0.543
  R0019839             JUNCTION     0.039    0.066     0  02:10      0.0219       0.044      -0.105
  R0019717             JUNCTION     0.046    0.250     0  02:13      0.0275       0.184       1.059
  R0019252             JUNCTION     0.024    0.024     0  02:10      0.0119      0.0119      -0.256
  R0019721             JUNCTION     0.008    0.029     0  02:10     0.00304      0.0135       0.072
  R0019942             JUNCTION     0.000    0.041     0  02:10           0      0.0225       0.155
  R0019206             JUNCTION     0.000    0.000     0  00:00           0           0       0.000 ltr
  R0019840             JUNCTION     0.000    0.120     0  02:11           0      0.0791       0.073
  R0043702             JUNCTION     0.039    0.151     0  02:11      0.0219       0.101      -0.030
  R0019723             JUNCTION     0.018    0.023     0  02:10     0.00826      0.0104      -0.349
  R0019724             JUNCTION     0.006    0.006     0  02:10     0.00215     0.00215      -0.390
  R0021433             JUNCTION     0.025    0.025     0  02:10      0.0124      0.0124      -0.265
  R0021435             JUNCTION     0.017    0.040     0  02:10     0.00758        0.02       0.139
  R0019769             OUTFALL      0.000    0.461     0  02:14           0       0.354       0.000
  
  
  **********************
  Node Surcharge Summary
  **********************
  
  No nodes were surcharged.
  
  
  *********************
  Node Flooding Summary
  *********************
  
  No nodes were flooded.
  
  
  ***********************
  Outfall Loading Summary
  ***********************
  
  -----------------------------------------------------------
                         Flow       Avg       Max       Total
                         Freq      Flow      Flow      Volume
  Outfall Node           Pcnt       CMS       CMS    10^6 ltr
  -----------------------------------------------------------
  R0019769               1.69     0.034     0.461       0.354
  -----------------------------------------------------------
  System                 1.69     0.034     0.461       0.354
  
  
  ********************
  Link Flow Summary
  ********************
  
  -----------------------------------------------------------------------------
                                 Maximum  Time of Max   Maximum    Max/    Max/
                                  |Flow|   Occurrence   |Veloc|    Full    Full
  Link                 Type          CMS  days hr:min     m/sec    Flow   Depth
  -----------------------------------------------------------------------------
  H0014431             CONDUIT     0.047     0  02:10      0.88    0.86    0.71
  H0014433             CONDUIT     0.022     0  02:10      0.66    0.28    0.48
  H0014352             CONDUIT     0.464     0  02:13      2.22    0.19    0.37
  H0014373             CONDUIT     0.461     0  02:14      2.94    0.21    0.29
  H0017981             CONDUIT     0.038     0  02:11      0.91    1.06    0.57
  H0017755             CONDUIT     0.066     0  02:12      1.12    0.53    0.48
  H0017791             CONDUIT     0.047     0  02:10      0.55    0.07    0.20
  H0017357             CONDUIT     0.000     0  00:00      0.00    0.00    0.20
  H0018216             CONDUIT     0.039     0  02:10      0.85    0.71    0.63
  H0016792             CONDUIT     0.268     0  02:13      1.43    0.15    0.34
  H0019507             CONDUIT     0.019     0  02:10      0.65    0.27    0.45
  H0019998             CONDUIT     0.339     0  02:13      2.42    0.14    0.27
  H0019576             CONDUIT     0.287     0  02:13      1.76    0.19    0.30
  H0020087             CONDUIT     0.004     0  02:10      0.16    0.02    0.23
  H0020211             CONDUIT     0.274     0  02:13      1.38    0.68    0.35
  H0018982             CONDUIT     0.068     0  02:11      0.71    0.11    0.21
  H0018753             CONDUIT     0.023     0  02:10      0.58    0.32    0.55
  H0018845             CONDUIT     0.000     0  00:00      0.00    0.00    0.00
  H0018863             CONDUIT     0.024     0  02:10      0.59    0.56    0.60
  H0019156             CONDUIT     0.000     0  00:00      0.00    0.00    0.00
  H0018929             CONDUIT     0.140     0  02:12      0.95    0.12    0.28
  H0018440             CONDUIT     0.058     0  02:11      0.97    1.04    0.79
  H0018456             CONDUIT     0.064     0  02:11      1.17    0.39    0.45
  H0018968             CONDUIT     0.461     0  02:14      3.34    0.18    0.27
  H0022036             CONDUIT     0.018     0  02:10      0.54    0.01    0.11
  H0021806             CONDUIT     0.067     0  02:11      1.02    0.60    0.53
  H0022111             CONDUIT     0.032     0  02:11      0.62    0.23    0.31
  H0021440             CONDUIT     0.250     0  02:13      1.82    0.16    0.27
  H0021704             CONDUIT     0.153     0  02:13      1.02    0.29    0.29
  H0020521             CONDUIT     0.022     0  02:10      0.57    0.45    0.54
  H0020755             CONDUIT     0.025     0  02:10      0.58    0.28    0.40
  H0020530             CONDUIT     0.460     0  02:14      2.10    0.39    0.38
  H0020618             CONDUIT     0.331     0  02:13      2.29    0.20    0.28
  H0021163             CONDUIT     0.041     0  02:10      1.09    0.69    0.53
  H0020497             CONDUIT     0.000     0  00:00      0.00    0.00    0.44
  H0024325             CONDUIT     0.065     0  02:10      1.42    0.19    0.29
  H0023585             CONDUIT     0.151     0  02:11      2.01    0.35    0.41
  H0024098             CONDUIT     0.063     0  02:11      1.36    0.74    0.73
  H0024235             CONDUIT     0.073     0  02:12      1.11    0.30    0.37
  H0024282             CONDUIT     0.000     0  00:00      0.00    0.00    0.00
  H0024308             CONDUIT     0.461     0  02:14      3.74    0.14    0.25
  H0024498             CONDUIT     0.056     0  02:11      1.12    0.87    0.67
  H0026990             CONDUIT     0.022     0  02:10      0.68    0.16    0.31
  H0041650             CONDUIT     0.070     0  02:12      0.68    0.08    0.23
  H0041011             CONDUIT     0.041     0  02:11      1.03    0.41    0.55
  H0045103             CONDUIT     0.065     0  02:12      0.70    0.08    0.21
  H0045104             CONDUIT     0.460     0  02:14      3.13    0.16    0.28
  H0045105             CONDUIT     0.005     0  02:10      0.34    0.09    0.28
  H0045106             CONDUIT     0.120     0  02:11      2.05    0.16    0.34
  H0045107             CONDUIT     0.023     0  02:10      0.69    0.39    0.50
  H0045108             CONDUIT     0.035     0  02:10      0.67    0.64    0.71
  
  
  ***************************
  Flow Classification Summary
  ***************************
  
  -------------------------------------------------------------------------------------
                      Adjusted    ---------- Fraction of Time in Flow Class ---------- 
                       /Actual         Up    Down  Sub   Sup   Up    Down  Norm  Inlet 
  Conduit               Length    Dry  Dry   Dry   Crit  Crit  Crit  Crit  Ltd   Ctrl  
  -------------------------------------------------------------------------------------
  H0014431                1.00   0.01  0.00  0.00  0.99  0.00  0.00  0.00  0.99  0.00
  H0014433                1.00   0.01  0.00  0.00  0.99  0.00  0.00  0.00  0.99  0.00
  H0014352                1.00   0.01  0.00  0.00  0.98  0.01  0.00  0.00  0.99  0.00
  H0014373                1.00   0.01  0.00  0.00  0.97  0.01  0.00  0.00  0.97  0.00
  H0017981                1.00   0.01  0.00  0.00  0.00  0.00  0.00  0.99  0.00  0.00
  H0017755                1.00   0.01  0.00  0.00  0.00  0.00  0.00  0.99  0.00  0.00
  H0017791                1.00   0.01  0.00  0.00  0.99  0.00  0.00  0.00  0.99  0.00
  H0017357                1.00   0.01  0.99  0.00  0.00  0.00  0.00  0.00  0.00  0.00
  H0018216                1.00   0.01  0.97  0.00  0.02  0.00  0.00  0.00  0.99  0.00
  H0016792                1.00   0.01  0.97  0.00  0.02  0.00  0.00  0.00  0.99  0.00
  H0019507                1.00   0.01  0.00  0.00  0.99  0.00  0.00  0.00  0.99  0.00
  H0019998                1.00   0.01  0.00  0.00  0.97  0.01  0.00  0.00  0.02  0.00
  H0019576                1.00   0.01  0.00  0.00  0.98  0.01  0.00  0.00  0.02  0.00
  H0020087                1.00   0.01  0.98  0.00  0.00  0.00  0.00  0.00  0.99  0.00
  H0020211                1.00   0.01  0.00  0.00  0.99  0.00  0.00  0.00  0.97  0.00
  H0018982                1.00   0.01  0.00  0.00  0.99  0.00  0.00  0.00  0.98  0.00
  H0018753                1.00   0.01  0.00  0.00  0.99  0.00  0.00  0.00  0.99  0.00
  H0018845                1.00   1.00  0.00  0.00  0.00  0.00  0.00  0.00  0.00  0.00
  H0018863                1.00   0.01  0.00  0.00  0.99  0.00  0.00  0.00  0.99  0.00
  H0019156                1.00   1.00  0.00  0.00  0.00  0.00  0.00  0.00  0.00  0.00
  H0018929                1.00   0.01  0.97  0.00  0.02  0.00  0.00  0.00  0.99  0.00
  H0018440                1.00   0.01  0.00  0.00  0.99  0.00  0.00  0.00  0.99  0.00
  H0018456                1.00   0.01  0.00  0.00  0.99  0.00  0.00  0.00  0.99  0.00
  H0018968                1.00   0.01  0.00  0.00  0.97  0.02  0.00  0.00  0.97  0.00
  H0022036                1.00   0.01  0.00  0.00  0.00  0.00  0.00  0.99  0.00  0.00
  H0021806                1.00   0.01  0.97  0.00  0.02  0.00  0.00  0.00  0.99  0.00
  H0022111                1.00   0.01  0.00  0.00  0.99  0.00  0.00  0.00  0.00  0.00
  H0021440                1.00   0.01  0.00  0.00  0.98  0.01  0.00  0.00  0.01  0.00
  H0021704                1.00   0.01  0.00  0.00  0.00  0.00  0.00  0.99  0.00  0.00
  H0020521                1.00   0.01  0.00  0.00  0.99  0.00  0.00  0.00  0.99  0.00
  H0020755                1.00   0.01  0.97  0.00  0.01  0.00  0.00  0.00  0.99  0.00
  H0020530                1.00   0.01  0.00  0.00  0.98  0.01  0.00  0.00  0.00  0.00
  H0020618                1.00   0.01  0.00  0.00  0.98  0.01  0.00  0.00  0.97  0.00
  H0021163                1.00   0.01  0.00  0.00  0.99  0.00  0.00  0.00  0.98  0.00
  H0020497                1.20   0.01  0.99  0.00  0.00  0.00  0.00  0.00  0.00  0.00
  H0024325                1.00   0.01  0.00  0.00  0.98  0.01  0.00  0.00  0.98  0.00
  H0023585                1.00   0.01  0.00  0.00  0.00  0.00  0.00  0.99  0.00  0.00
  H0024098                1.00   0.01  0.97  0.00  0.02  0.00  0.00  0.00  0.99  0.00
  H0024235                1.00   0.01  0.00  0.00  0.00  0.00  0.00  0.99  0.00  0.00
  H0024282                1.00   1.00  0.00  0.00  0.00  0.00  0.00  0.00  0.00  0.00
  H0024308                1.00   0.01  0.00  0.00  0.97  0.02  0.00  0.00  0.00  0.00
  H0024498                1.00   0.01  0.00  0.00  0.00  0.00  0.00  0.99  0.00  0.00
  H0026990                1.00   0.01  0.00  0.00  0.99  0.00  0.00  0.00  0.99  0.00
  H0041650                1.00   0.98  0.00  0.00  0.01  0.00  0.00  0.00  0.99  0.00
  H0041011                1.00   0.01  0.00  0.00  0.99  0.00  0.00  0.00  0.99  0.00
  H0045103                1.00   0.01  0.00  0.00  0.99  0.00  0.00  0.00  0.98  0.00
  H0045104                1.00   0.01  0.00  0.00  0.97  0.02  0.00  0.00  0.02  0.00
  H0045105                1.00   0.01  0.00  0.00  0.99  0.00  0.00  0.00  0.99  0.00
  H0045106                1.00   0.01  0.97  0.00  0.01  0.01  0.00  0.00  0.99  0.00
  H0045107                1.00   0.01  0.00  0.00  0.99  0.00  0.00  0.00  0.99  0.00
  H0045108                1.00   0.01  0.00  0.00  0.99  0.00  0.00  0.00  0.99  0.00
  
  
  *************************
  Conduit Surcharge Summary
  *************************
  
  ----------------------------------------------------------------------------
                                                           Hours        Hours 
                         --------- Hours Full --------   Above Full   Capacity
  Conduit                Both Ends  Upstream  Dnstream   Normal Flow   Limited
  ----------------------------------------------------------------------------
  H0017981                    0.01      0.01      0.01      0.02         0.01
  H0018440                    0.01      0.01      0.01      0.02         0.01
  

  Analysis begun on:  Fri Mar 15 16:20:21 2024
  Analysis ended on:  Fri Mar 15 16:20:45 2024
  Total elapsed time: 00:00:24