
  EPA STORM WATER MANAGEMENT MODEL - VERSION 5.2 (Build 5.2.4)
  PYSWMM TOOLKIT API - VERSION v1.0 (2023-11-27)
  ------------------------------------------------------------

  
  ****************
  Analysis Options
  ****************
  Flow Units ............... CMS
  Process Models:
    Rainfall/Runoff ........ YES
    RDII ................... NO
    Snowmelt ............... NO
    Groundwater ............ NO
    Flow Routing ........... YES
    Ponding Allowed ........ NO
    Water Quality .......... NO
  Infiltration Method ...... HORTON
  Flow Routing Method ...... DYNWAVE
  Surcharge Method ......... SLOT
  Starting Date ............ 01/01/2024 00:00:00
  Ending Date .............. 01/08/2024 04:00:00
  Antecedent Dry Days ...... 14.0
  Report Time Step ......... 00:01:00
  Wet Time Step ............ 00:01:00
  Dry Time Step ............ 00:01:00
  Routing Time Step ........ 1.00 sec
  Variable Time Step ....... YES
  Maximum Trials ........... 8
  Number of Threads ........ 4
  Head Tolerance ........... 0.001500 m
  
  
  **************************        Volume         Depth
  Runoff Quantity Continuity     hectare-m            mm
  **************************     ---------       -------
  Total Precipitation ......         0.310        30.650
  Evaporation Loss .........         0.010         0.944
  Infiltration Loss ........         0.174        17.187
  Surface Runoff ...........         0.127        12.537
  Final Storage ............         0.000         0.000
  Continuity Error (%) .....        -0.057
  
  
  **************************        Volume        Volume
  Flow Routing Continuity        hectare-m      10^6 ltr
  **************************     ---------     ---------
  Dry Weather Inflow .......         0.000         0.000
  Wet Weather Inflow .......         0.127         1.269
  Groundwater Inflow .......         0.000         0.000
  RDII Inflow ..............         0.000         0.000
  External Inflow ..........         0.000         0.000
  External Outflow .........         0.127         1.270
  Flooding Loss ............         0.000         0.000
  Evaporation Loss .........         0.000         0.000
  Exfiltration Loss ........         0.000         0.000
  Initial Stored Volume ....         0.000         0.000
  Final Stored Volume ......         0.000         0.000
  Continuity Error (%) .....        -0.045
  
  
  ***************************
  Time-Step Critical Elements
  ***************************
  None
  
  
  ********************************
  Highest Flow Instability Indexes
  ********************************
  All links are stable.
  
  
  *********************************
  Most Frequent Nonconverging Nodes
  *********************************
  Convergence obtained at all time steps.
  
  
  *************************
  Routing Time Step Summary
  *************************
  Minimum Time Step           :     0.50 sec
  Average Time Step           :     1.00 sec
  Maximum Time Step           :     1.00 sec
  % of Time in Steady State   :     0.00
  Average Iterations per Step :     2.00
  % of Steps Not Converging   :     0.00
  Time Step Frequencies       :
      1.000 -  0.871 sec      :   100.00 %
      0.871 -  0.758 sec      :     0.00 %
      0.758 -  0.660 sec      :     0.00 %
      0.660 -  0.574 sec      :     0.00 %
      0.574 -  0.500 sec      :     0.00 %
  
  
  ***************************
  Subcatchment Runoff Summary
  ***************************
  
  ------------------------------------------------------------------------------------------------------------------------------
                            Total      Total      Total      Total     Imperv       Perv      Total       Total     Peak  Runoff
                           Precip      Runon       Evap      Infil     Runoff     Runoff     Runoff      Runoff   Runoff   Coeff
  Subcatchment                 mm         mm         mm         mm         mm         mm         mm    10^6 ltr      CMS
  ------------------------------------------------------------------------------------------------------------------------------
  EZG_368                   30.65       0.00       0.94      17.29      14.40       0.20      12.44        0.05     0.04   0.406
  EZG_392                   30.65       0.00       0.94      17.26      14.40       0.23      12.47        0.04     0.03   0.407
  EZG_352                   30.65       0.00       0.94      17.32      14.39       0.17      12.41        0.07     0.06   0.405
  EZG_372                   30.65       0.00       0.93      17.17      14.42       0.33      12.58        0.02     0.01   0.411
  EZG_416                   30.65       0.00       0.93      17.25      14.41       0.24      12.48        0.04     0.03   0.407
  EZG_388                   30.65       0.00       0.94      17.29      14.40       0.19      12.43        0.06     0.04   0.406
  EZG_394                   30.65       0.00       0.93      17.25      14.41       0.24      12.49        0.03     0.03   0.407
  EZG_400                   30.65       0.00       0.93      17.24      14.41       0.25      12.50        0.03     0.03   0.408
  EZG_390                   30.65       0.00       0.94      17.26      14.40       0.23      12.47        0.04     0.03   0.407
  EZG_350                   30.65       0.00       0.94      17.29      14.40       0.19      12.43        0.06     0.04   0.406
  EZG_370                   30.65       0.00       0.94      17.27      14.40       0.22      12.46        0.04     0.04   0.406
  EZG_398                   30.65       0.00       0.92      17.13      14.42       0.37      12.63        0.01     0.01   0.412
  EZG_382                   30.65       0.00       0.92      17.11      14.42       0.39      12.64        0.01     0.01   0.413
  EZG_374                   30.65       0.00       1.13      14.52      17.28       0.34      15.02        0.06     0.04   0.490
  EZG_412                   30.65       0.00       0.92      17.00      14.43       0.50      12.77        0.01     0.00   0.417
  EZG_344                   30.65       0.00       0.93      17.24      14.41       0.25      12.50        0.03     0.03   0.408
  EZG_376                   30.65       0.00       0.93      17.21      14.41       0.28      12.53        0.02     0.02   0.409
  EZG_356                   30.65       0.00       0.94      17.32      14.39       0.16      12.40        0.08     0.06   0.405
  EZG_386                   30.65       0.00       0.95      17.34      14.39       0.15      12.38        0.10     0.07   0.404
  EZG_380                   30.65       0.00       0.94      17.28      14.40       0.21      12.45        0.05     0.04   0.406
  EZG_378                   30.65       0.00       0.94      17.27      14.40       0.22      12.46        0.04     0.03   0.407
  EZG_414                   30.65       0.00       0.92      17.11      14.42       0.39      12.65        0.01     0.01   0.413
  EZG_402                   30.65       0.00       0.94      17.26      14.40       0.23      12.47        0.04     0.03   0.407
  EZG_358                   30.65       0.00       0.94      17.32      14.39       0.17      12.40        0.08     0.06   0.405
  EZG_364                   30.65       0.00       0.94      17.32      14.39       0.17      12.40        0.08     0.06   0.405
  EZG_410                   30.65       0.00       0.93      17.22      14.41       0.27      12.52        0.03     0.02   0.409
  EZG_366                   30.65       0.00       0.93      17.23      14.41       0.26      12.51        0.03     0.02   0.408
  EZG_18259                 30.65       0.00       0.93      17.23      14.41       0.26      12.51        0.03     0.02   0.408
  EZG_18258                 30.65       0.00       0.92      17.06      14.43       0.44      12.70        0.01     0.01   0.414
  EZG_346                   30.65       0.00       0.92      17.54      14.11       0.21      12.21        0.04     0.04   0.398
  EZG_348                   30.65       0.00       0.91      17.50      14.12       0.26      12.26        0.03     0.02   0.400
  
  
  ******************
  Node Depth Summary
  ******************
  
  ---------------------------------------------------------------------------------
                                 Average  Maximum  Maximum  Time of Max    Reported
                                   Depth    Depth      HGL   Occurrence   Max Depth
  Node                 Type       Meters   Meters   Meters  days hr:min      Meters
  ---------------------------------------------------------------------------------
  R0019466             JUNCTION     0.00     0.39    69.84     0  08:05        0.39
  R0019468             JUNCTION     0.00     0.35    69.66     0  08:05        0.33
  R0019831             JUNCTION     0.00     0.13    69.30     0  08:05        0.13
  R0019825             JUNCTION     0.00     0.24    69.08     0  08:05        0.24
  R0019843             JUNCTION     0.00     0.35    67.98     0  08:06        0.35
  R0019368             JUNCTION     0.01     0.53    67.32     0  08:06        0.52
  R0019369             JUNCTION     0.01     0.38    66.97     0  08:06        0.37
  R0019370             JUNCTION     0.00     0.32    66.22     0  08:07        0.32
  R0019345             JUNCTION     0.00     0.25    70.15     0  08:05        0.24
  R0019346             JUNCTION     0.00     0.22    70.02     0  08:05        0.22
  R0043600             JUNCTION     0.00     0.25    69.92     0  08:06        0.25
  R0019203             JUNCTION     0.00     0.28    69.82     0  08:06        0.28
  R0043594             JUNCTION     0.00     0.21    69.94     0  08:05        0.21
  R0021458             JUNCTION     0.00     0.25    69.90     0  08:05        0.25
  R0019202             JUNCTION     0.00     0.26    69.84     0  08:06        0.26
  R0019373             JUNCTION     0.00     0.18    69.85     0  08:05        0.17
  R0019254             JUNCTION     0.00     0.26    70.30     0  08:05        0.25
  R0019716             JUNCTION     0.00     0.32    69.33     0  08:05        0.32
  R0019946             JUNCTION     0.01     0.46    69.08     0  08:05        0.46
  R0013935             JUNCTION     0.00     0.13    68.96     0  08:05        0.13
  R0019939             JUNCTION     0.00     0.31    68.88     0  08:05        0.30
  R0019944             JUNCTION     0.00     0.29    68.57     0  08:06        0.29
  R0043703             JUNCTION     0.00     0.35    68.95     0  08:06        0.35
  R0019945             JUNCTION     0.00     0.36    68.76     0  08:06        0.36
  R0039621             JUNCTION     0.00     0.11    69.68     0  08:05        0.11
  R0019838             JUNCTION     0.00     0.22    69.68     0  08:05        0.22
  R0039606             JUNCTION     0.00     0.25    69.84     0  08:06        0.25
  R0019204             JUNCTION     0.00     0.00    69.91     0  00:00        0.00
  R0019205             JUNCTION     0.00     0.00    69.62     0  00:00        0.00
  R0019849             JUNCTION     0.00     0.34    68.86     0  08:05        0.34
  R0019371             JUNCTION     0.00     0.00    70.41     0  00:00        0.00
  R0019718             JUNCTION     0.01     0.36    69.78     0  08:06        0.36
  R0021442             JUNCTION     0.00     0.51    70.56     0  08:05        0.50
  R0019247             JUNCTION     0.00     0.30    70.18     0  08:05        0.29
  R0019719             JUNCTION     0.00     0.24    69.92     0  08:05        0.24
  R0019767             JUNCTION     0.00     0.34    65.07     0  08:07        0.34
  R0019768             JUNCTION     0.00     0.29    64.06     0  08:07        0.29
  R0021453             JUNCTION     0.00     0.09    70.04     0  08:05        0.09
  R0019839             JUNCTION     0.00     0.20    69.59     0  08:05        0.20
  R0019717             JUNCTION     0.00     0.32    69.66     0  08:05        0.31
  R0019252             JUNCTION     0.00     0.18    70.37     0  08:05        0.18
  R0019721             JUNCTION     0.00     0.19    70.06     0  08:05        0.18
  R0019942             JUNCTION     0.00     0.22    68.87     0  08:06        0.22
  R0019206             JUNCTION     0.00     0.00    69.07     0  00:00        0.00
  R0019840             JUNCTION     0.00     0.18    69.15     0  08:05        0.18
  R0043702             JUNCTION     0.00     0.27    68.97     0  08:05        0.26
  R0019723             JUNCTION     0.00     0.13    70.21     0  08:05        0.13
  R0019724             JUNCTION     0.00     0.07    70.23     0  08:05        0.07
  R0021433             JUNCTION     0.00     0.31    70.70     0  08:05        0.25
  R0021435             JUNCTION     0.00     0.45    70.63     0  08:05        0.44
  R0019769             OUTFALL      0.00     0.29    63.67     0  08:07        0.29
  
  
  *******************
  Node Inflow Summary
  *******************
  
  -------------------------------------------------------------------------------------------------
                                  Maximum  Maximum                  Lateral       Total        Flow
                                  Lateral    Total  Time of Max      Inflow      Inflow     Balance
                                   Inflow   Inflow   Occurrence      Volume      Volume       Error
  Node                 Type           CMS      CMS  days hr:min    10^6 ltr    10^6 ltr     Percent
  -------------------------------------------------------------------------------------------------
  R0019466             JUNCTION     0.040    0.072     0  08:04      0.0514      0.0961       0.047
  R0019468             JUNCTION     0.025    0.089     0  08:05      0.0299       0.126      -0.020
  R0019831             JUNCTION     0.033    0.033     0  08:05      0.0404      0.0404      -0.016
  R0019825             JUNCTION     0.033    0.064     0  08:05      0.0405      0.0809       0.021
  R0019843             JUNCTION     0.000    0.781     0  08:06           0        1.27      -0.004
  R0019368             JUNCTION     0.000    0.780     0  08:06           0        1.27       0.003
  R0019369             JUNCTION     0.000    0.797     0  08:06           0        1.27      -0.001
  R0019370             JUNCTION     0.000    0.778     0  08:06           0        1.27       0.002
  R0019345             JUNCTION     0.000    0.058     0  08:05           0      0.0791       0.003
  R0019346             JUNCTION     0.005    0.096     0  08:05      0.0051       0.133       0.011
  R0043600             JUNCTION     0.000    0.100     0  08:05           0       0.154       0.013
  R0019203             JUNCTION     0.010    0.220     0  08:06      0.0112       0.344      -0.004
  R0043594             JUNCTION     0.056    0.081     0  08:05      0.0733       0.105      -0.034
  R0021458             JUNCTION     0.044    0.117     0  08:05      0.0571       0.162      -0.008
  R0019202             JUNCTION     0.015    0.117     0  08:05       0.017       0.179      -0.013
  R0019373             JUNCTION     0.036    0.036     0  08:05      0.0447      0.0447      -0.003
  R0019254             JUNCTION     0.030    0.062     0  08:05      0.0364      0.0791       0.002
  R0019716             JUNCTION     0.044    0.441     0  08:05      0.0567       0.707      -0.007
  R0019946             JUNCTION     0.000    0.441     0  08:06           0       0.707      -0.001
  R0013935             JUNCTION     0.028    0.028     0  08:05      0.0346      0.0346      -0.022
  R0019939             JUNCTION     0.011    0.038     0  08:05      0.0125      0.0472       0.008
  R0019944             JUNCTION     0.026    0.560     0  08:06      0.0322       0.907       0.005
  R0043703             JUNCTION     0.032    0.468     0  08:06      0.0395       0.747       0.010
  R0019945             JUNCTION     0.000    0.548     0  08:06           0       0.875      -0.007
  R0039621             JUNCTION     0.000    0.003     0  08:02           0    0.000581       1.620
  R0019838             JUNCTION     0.060    0.060     0  08:05      0.0795        0.08      -0.012
  R0039606             JUNCTION     0.000    0.109     0  08:05           0       0.162       0.036
  R0019204             JUNCTION     0.000    0.000     0  00:00           0           0       0.000 ltr
  R0019205             JUNCTION     0.000    0.000     0  00:00           0           0       0.000 ltr
  R0019849             JUNCTION     0.000    0.085     0  08:04           0       0.128       0.015
  R0019371             JUNCTION     0.000    0.000     0  00:00           0           0       0.000 ltr
  R0019718             JUNCTION     0.038    0.244     0  08:06      0.0485       0.392      -0.560
  R0021442             JUNCTION     0.044    0.086     0  08:05      0.0569       0.129       0.038
  R0019247             JUNCTION     0.021    0.105     0  08:05       0.025       0.154      -0.020
  R0019719             JUNCTION     0.022    0.112     0  08:05      0.0263       0.159      -0.009
  R0019767             JUNCTION     0.000    0.777     0  08:07           0        1.27      -0.005
  R0019768             JUNCTION     0.000    0.778     0  08:07           0        1.27       0.008
  R0021453             JUNCTION     0.026    0.026     0  08:05      0.0316      0.0316      -0.063
  R0019839             JUNCTION     0.059    0.113     0  08:05      0.0785       0.158      -0.002
  R0019717             JUNCTION     0.073    0.406     0  08:05      0.0988       0.652       0.252
  R0019252             JUNCTION     0.034    0.034     0  08:05      0.0427      0.0427      -0.007
  R0019721             JUNCTION     0.010    0.040     0  08:05       0.011      0.0485       0.019
  R0019942             JUNCTION     0.000    0.060     0  08:05           0      0.0809      -0.009
  R0019206             JUNCTION     0.000    0.000     0  00:00           0           0       0.000 ltr
  R0019840             JUNCTION     0.000    0.194     0  08:05           0       0.284       0.004
  R0043702             JUNCTION     0.059    0.246     0  08:05      0.0786       0.363      -0.004
  R0019723             JUNCTION     0.025    0.032     0  08:05      0.0297      0.0375      -0.046
  R0019724             JUNCTION     0.007    0.007     0  08:05     0.00778     0.00778      -0.052
  R0021433             JUNCTION     0.035    0.035     0  08:05      0.0444      0.0444      -0.183
  R0021435             JUNCTION     0.023    0.054     0  08:04      0.0273      0.0718       0.059
  R0019769             OUTFALL      0.000    0.779     0  08:07           0        1.27       0.000
  
  
  **********************
  Node Surcharge Summary
  **********************
  
  Surcharging occurs when water rises above the top of the highest conduit.
  ---------------------------------------------------------------------
                                               Max. Height   Min. Depth
                                   Hours       Above Crown    Below Rim
  Node                 Type      Surcharged         Meters       Meters
  ---------------------------------------------------------------------
  R0019466             JUNCTION        0.04          0.093        2.417
  R0019468             JUNCTION        0.03          0.054        2.376
  R0019939             JUNCTION        0.01          0.006        1.614
  R0019849             JUNCTION        0.04          0.039        1.891
  R0021442             JUNCTION        0.07          0.207        1.543
  R0021433             JUNCTION        0.01          0.014        1.836
  R0021435             JUNCTION        0.04          0.145        1.665
  
  
  *********************
  Node Flooding Summary
  *********************
  
  No nodes were flooded.
  
  
  ***********************
  Outfall Loading Summary
  ***********************
  
  -----------------------------------------------------------
                         Flow       Avg       Max       Total
                         Freq      Flow      Flow      Volume
  Outfall Node           Pcnt       CMS       CMS    10^6 ltr
  -----------------------------------------------------------
  R0019769              10.83     0.019     0.779       1.270
  -----------------------------------------------------------
  System                10.83     0.019     0.779       1.270
  
  
  ********************
  Link Flow Summary
  ********************
  
  -----------------------------------------------------------------------------
                                 Maximum  Time of Max   Maximum    Max/    Max/
                                  |Flow|   Occurrence   |Veloc|    Full    Full
  Link                 Type          CMS  days hr:min     m/sec    Flow   Depth
  -----------------------------------------------------------------------------
  H0014431             CONDUIT     0.065     0  08:05      0.92    1.20    1.00
  H0014433             CONDUIT     0.032     0  08:05      0.68    0.41    0.63
  H0014352             CONDUIT     0.780     0  08:06      2.56    0.32    0.49
  H0014373             CONDUIT     0.778     0  08:06      3.42    0.36    0.39
  H0017981             CONDUIT     0.057     0  08:05      1.05    1.62    0.72
  H0017755             CONDUIT     0.099     0  08:06      1.27    0.80    0.59
  H0017791             CONDUIT     0.074     0  08:05      0.58    0.11    0.26
  H0017357             CONDUIT     0.000     0  08:05      0.02    0.01    0.32
  H0018216             CONDUIT     0.058     0  08:05      0.92    1.05    0.84
  H0016792             CONDUIT     0.441     0  08:06      1.67    0.25    0.43
  H0019507             CONDUIT     0.028     0  08:05      0.65    0.38    0.70
  H0019998             CONDUIT     0.559     0  08:06      2.77    0.22    0.35
  H0019576             CONDUIT     0.470     0  08:06      2.01    0.32    0.40
  H0020087             CONDUIT     0.004     0  08:06      0.12    0.02    0.33
  H0020211             CONDUIT     0.450     0  08:06      1.63    1.12    0.45
  H0018982             CONDUIT     0.109     0  08:05      0.76    0.18    0.28
  H0018753             CONDUIT     0.033     0  08:06      0.59    0.46    0.92
  H0018845             CONDUIT     0.000     0  00:00      0.00    0.00    0.00
  H0018863             CONDUIT     0.030     0  08:05      0.56    0.71    1.00
  H0019156             CONDUIT     0.000     0  00:00      0.00    0.00    0.00
  H0018929             CONDUIT     0.221     0  08:06      1.08    0.19    0.36
  H0018440             CONDUIT     0.085     0  08:05      1.21    1.53    1.00
  H0018456             CONDUIT     0.096     0  08:05      1.29    0.59    0.58
  H0018968             CONDUIT     0.778     0  08:07      3.89    0.30    0.35
  H0022036             CONDUIT     0.025     0  08:05      0.46    0.02    0.15
  H0021806             CONDUIT     0.100     0  08:05      1.11    0.89    0.67
  H0022111             CONDUIT     0.055     0  08:05      0.71    0.39    0.42
  H0021440             CONDUIT     0.409     0  08:05      2.04    0.26    0.35
  H0021704             CONDUIT     0.245     0  08:06      1.19    0.47    0.36
  H0020521             CONDUIT     0.033     0  08:05      0.60    0.66    0.73
  H0020755             CONDUIT     0.036     0  08:05      0.56    0.40    0.51
  H0020530             CONDUIT     0.797     0  08:06      2.50    0.68    0.50
  H0020618             CONDUIT     0.547     0  08:06      2.64    0.34    0.36
  H0021163             CONDUIT     0.060     0  08:05      1.14    1.01    0.74
  H0020497             CONDUIT     0.000     0  00:00      0.00    0.00    0.58
  H0024325             CONDUIT     0.110     0  08:05      1.63    0.33    0.38
  H0023585             CONDUIT     0.245     0  08:05      2.29    0.56    0.54
  H0024098             CONDUIT     0.081     0  08:06      1.15    0.95    1.00
  H0024235             CONDUIT     0.112     0  08:06      1.26    0.46    0.46
  H0024282             CONDUIT     0.000     0  00:00      0.00    0.00    0.00
  H0024308             CONDUIT     0.779     0  08:07      4.35    0.23    0.32
  H0024498             CONDUIT     0.084     0  08:05      1.20    1.30    0.97
  H0026990             CONDUIT     0.030     0  08:05      0.66    0.23    0.39
  H0041650             CONDUIT     0.116     0  08:06      0.72    0.14    0.30
  H0041011             CONDUIT     0.056     0  08:04      1.03    0.55    0.93
  H0045103             CONDUIT     0.108     0  08:06      0.73    0.14    0.28
  H0045104             CONDUIT     0.777     0  08:07      3.63    0.28    0.37
  H0045105             CONDUIT     0.007     0  08:05      0.34    0.12    0.33
  H0045106             CONDUIT     0.195     0  08:05      2.28    0.26    0.45
  H0045107             CONDUIT     0.032     0  08:04      0.68    0.53    1.00
  H0045108             CONDUIT     0.049     0  08:05      0.69    0.87    1.00
  
  
  ***************************
  Flow Classification Summary
  ***************************
  
  -------------------------------------------------------------------------------------
                      Adjusted    ---------- Fraction of Time in Flow Class ---------- 
                       /Actual         Up    Down  Sub   Sup   Up    Down  Norm  Inlet 
  Conduit               Length    Dry  Dry   Dry   Crit  Crit  Crit  Crit  Ltd   Ctrl  
  -------------------------------------------------------------------------------------
  H0014431                1.00   0.02  0.00  0.00  0.98  0.00  0.00  0.00  0.98  0.00
  H0014433                1.00   0.02  0.00  0.00  0.98  0.00  0.00  0.00  0.98  0.00
  H0014352                1.00   0.02  0.00  0.00  0.88  0.10  0.00  0.00  0.98  0.00
  H0014373                1.00   0.02  0.00  0.00  0.87  0.11  0.00  0.00  0.87  0.00
  H0017981                1.00   0.02  0.00  0.00  0.00  0.00  0.00  0.98  0.00  0.00
  H0017755                1.00   0.02  0.00  0.00  0.00  0.00  0.00  0.98  0.00  0.00
  H0017791                1.00   0.02  0.00  0.00  0.98  0.00  0.00  0.00  0.98  0.00
  H0017357                1.00   0.02  0.98  0.00  0.00  0.00  0.00  0.00  0.95  0.00
  H0018216                1.00   0.02  0.87  0.00  0.11  0.00  0.00  0.00  0.98  0.00
  H0016792                1.00   0.02  0.87  0.00  0.11  0.00  0.00  0.00  0.98  0.00
  H0019507                1.00   0.02  0.00  0.00  0.98  0.00  0.00  0.00  0.98  0.00
  H0019998                1.00   0.02  0.00  0.00  0.87  0.11  0.00  0.00  0.11  0.00
  H0019576                1.00   0.02  0.00  0.00  0.92  0.06  0.00  0.00  0.11  0.00
  H0020087                1.00   0.02  0.97  0.00  0.00  0.00  0.00  0.00  0.95  0.00
  H0020211                1.00   0.02  0.00  0.00  0.98  0.00  0.00  0.00  0.87  0.00
  H0018982                1.00   0.02  0.00  0.00  0.98  0.00  0.00  0.00  0.88  0.00
  H0018753                1.00   0.02  0.00  0.00  0.98  0.00  0.00  0.00  0.98  0.00
  H0018845                1.00   1.00  0.00  0.00  0.00  0.00  0.00  0.00  0.00  0.00
  H0018863                1.00   0.02  0.00  0.00  0.98  0.00  0.00  0.00  0.98  0.00
  H0019156                1.00   1.00  0.00  0.00  0.00  0.00  0.00  0.00  0.00  0.00
  H0018929                1.00   0.02  0.87  0.00  0.11  0.00  0.00  0.00  0.98  0.00
  H0018440                1.00   0.02  0.00  0.00  0.98  0.00  0.00  0.00  0.98  0.00
  H0018456                1.00   0.02  0.00  0.00  0.98  0.00  0.00  0.00  0.98  0.00
  H0018968                1.00   0.02  0.86  0.00  0.01  0.11  0.00  0.00  0.87  0.00
  H0022036                1.00   0.02  0.00  0.00  0.01  0.01  0.00  0.97  0.01  0.00
  H0021806                1.00   0.02  0.87  0.00  0.11  0.00  0.00  0.00  0.94  0.00
  H0022111                1.00   0.02  0.00  0.00  0.98  0.00  0.00  0.00  0.00  0.00
  H0021440                1.00   0.02  0.00  0.00  0.88  0.10  0.00  0.00  0.01  0.00
  H0021704                1.00   0.02  0.00  0.00  0.00  0.00  0.00  0.98  0.00  0.00
  H0020521                1.00   0.02  0.00  0.00  0.98  0.00  0.00  0.00  0.98  0.00
  H0020755                1.00   0.02  0.87  0.00  0.11  0.00  0.00  0.00  0.98  0.00
  H0020530                1.00   0.02  0.00  0.00  0.88  0.10  0.00  0.00  0.00  0.00
  H0020618                1.00   0.02  0.00  0.00  0.88  0.10  0.00  0.00  0.87  0.00
  H0021163                1.00   0.02  0.00  0.00  0.98  0.00  0.00  0.00  0.88  0.00
  H0020497                1.20   0.02  0.98  0.00  0.00  0.00  0.00  0.00  0.00  0.00
  H0024325                1.00   0.02  0.00  0.00  0.88  0.10  0.00  0.00  0.88  0.00
  H0023585                1.00   0.02  0.00  0.00  0.00  0.00  0.00  0.98  0.00  0.00
  H0024098                1.00   0.02  0.87  0.00  0.11  0.00  0.00  0.00  0.98  0.00
  H0024235                1.00   0.02  0.00  0.00  0.00  0.00  0.00  0.98  0.00  0.00
  H0024282                1.00   1.00  0.00  0.00  0.00  0.00  0.00  0.00  0.00  0.00
  H0024308                1.00   0.02  0.00  0.00  0.87  0.11  0.00  0.00  0.05  0.00
  H0024498                1.00   0.02  0.00  0.00  0.00  0.00  0.00  0.98  0.00  0.00
  H0026990                1.00   0.02  0.00  0.00  0.98  0.00  0.00  0.00  0.98  0.00
  H0041650                1.00   0.89  0.00  0.00  0.11  0.00  0.00  0.00  0.98  0.00
  H0041011                1.00   0.02  0.00  0.00  0.98  0.00  0.00  0.00  0.98  0.00
  H0045103                1.00   0.02  0.00  0.00  0.98  0.00  0.00  0.00  0.95  0.00
  H0045104                1.00   0.02  0.00  0.00  0.87  0.11  0.00  0.00  0.11  0.00
  H0045105                1.00   0.02  0.00  0.00  0.98  0.00  0.00  0.00  0.98  0.00
  H0045106                1.00   0.02  0.87  0.00  0.01  0.10  0.00  0.00  0.98  0.00
  H0045107                1.00   0.02  0.00  0.00  0.98  0.00  0.00  0.00  0.98  0.00
  H0045108                1.00   0.02  0.00  0.00  0.98  0.00  0.00  0.00  0.98  0.00
  
  
  *************************
  Conduit Surcharge Summary
  *************************
  
  ----------------------------------------------------------------------------
                                                           Hours        Hours 
                         --------- Hours Full --------   Above Full   Capacity
  Conduit                Both Ends  Upstream  Dnstream   Normal Flow   Limited
  ----------------------------------------------------------------------------
  H0014431                    0.03      0.04      0.03      0.06         0.04
  H0017981                    0.01      0.01      0.01      0.08         0.01
  H0018216                    0.01      0.01      0.01      0.02         0.01
  H0019507                    0.01      0.01      0.01      0.01         0.01
  H0020211                    0.01      0.01      0.01      0.04         0.01
  H0018753                    0.01      0.01      0.04      0.01         0.01
  H0018863                    0.01      0.01      0.04      0.01         0.01
  H0018440                    0.01      0.07      0.01      0.10         0.05
  H0021163                    0.01      0.01      0.01      0.01         0.01
  H0024098                    0.04      0.04      0.08      0.01         0.01
  H0024498                    0.01      0.03      0.01      0.07         0.01
  H0041011                    0.01      0.01      0.04      0.01         0.01
  H0045107                    0.01      0.01      0.04      0.01         0.01
  H0045108                    0.04      0.04      0.07      0.01         0.01
  

  Analysis begun on:  Fri Mar 15 16:19:08 2024
  Analysis ended on:  Fri Mar 15 16:19:32 2024
  Total elapsed time: 00:00:24