
  EPA STORM WATER MANAGEMENT MODEL - VERSION 5.2 (Build 5.2.4)
  PYSWMM TOOLKIT API - VERSION v1.0 (2023-11-27)
  ------------------------------------------------------------

  
  ****************
  Analysis Options
  ****************
  Flow Units ............... CMS
  Process Models:
    Rainfall/Runoff ........ YES
    RDII ................... NO
    Snowmelt ............... NO
    Groundwater ............ NO
    Flow Routing ........... YES
    Ponding Allowed ........ NO
    Water Quality .......... NO
  Infiltration Method ...... HORTON
  Flow Routing Method ...... DYNWAVE
  Surcharge Method ......... SLOT
  Starting Date ............ 01/01/2024 00:00:00
  Ending Date .............. 01/08/2024 04:00:00
  Antecedent Dry Days ...... 14.0
  Report Time Step ......... 00:01:00
  Wet Time Step ............ 00:01:00
  Dry Time Step ............ 00:01:00
  Routing Time Step ........ 1.00 sec
  Variable Time Step ....... YES
  Maximum Trials ........... 8
  Number of Threads ........ 4
  Head Tolerance ........... 0.001500 m
  
  
  **************************        Volume         Depth
  Runoff Quantity Continuity     hectare-m            mm
  **************************     ---------       -------
  Total Precipitation ......         0.390        38.570
  Evaporation Loss .........         0.010         0.939
  Infiltration Loss ........         0.216        21.350
  Surface Runoff ...........         0.165        16.300
  Final Storage ............         0.000         0.000
  Continuity Error (%) .....        -0.048
  
  
  **************************        Volume        Volume
  Flow Routing Continuity        hectare-m      10^6 ltr
  **************************     ---------     ---------
  Dry Weather Inflow .......         0.000         0.000
  Wet Weather Inflow .......         0.165         1.650
  Groundwater Inflow .......         0.000         0.000
  RDII Inflow ..............         0.000         0.000
  External Inflow ..........         0.000         0.000
  External Outflow .........         0.165         1.651
  Flooding Loss ............         0.000         0.000
  Evaporation Loss .........         0.000         0.000
  Exfiltration Loss ........         0.000         0.000
  Initial Stored Volume ....         0.000         0.000
  Final Stored Volume ......         0.000         0.000
  Continuity Error (%) .....        -0.039
  
  
  ***************************
  Time-Step Critical Elements
  ***************************
  None
  
  
  ********************************
  Highest Flow Instability Indexes
  ********************************
  All links are stable.
  
  
  *********************************
  Most Frequent Nonconverging Nodes
  *********************************
  Convergence obtained at all time steps.
  
  
  *************************
  Routing Time Step Summary
  *************************
  Minimum Time Step           :     0.67 sec
  Average Time Step           :     1.00 sec
  Maximum Time Step           :     1.00 sec
  % of Time in Steady State   :     0.00
  Average Iterations per Step :     2.00
  % of Steps Not Converging   :     0.00
  Time Step Frequencies       :
      1.000 -  0.871 sec      :   100.00 %
      0.871 -  0.758 sec      :     0.00 %
      0.758 -  0.660 sec      :     0.00 %
      0.660 -  0.574 sec      :     0.00 %
      0.574 -  0.500 sec      :     0.00 %
  
  
  ***************************
  Subcatchment Runoff Summary
  ***************************
  
  ------------------------------------------------------------------------------------------------------------------------------
                            Total      Total      Total      Total     Imperv       Perv      Total       Total     Peak  Runoff
                           Precip      Runon       Evap      Infil     Runoff     Runoff     Runoff      Runoff   Runoff   Coeff
  Subcatchment                 mm         mm         mm         mm         mm         mm         mm    10^6 ltr      CMS
  ------------------------------------------------------------------------------------------------------------------------------
  EZG_368                   38.57       0.00       0.93      21.48      18.37       0.57      16.18        0.07     0.04   0.419
  EZG_392                   38.57       0.00       0.93      21.43      18.37       0.62      16.23        0.05     0.03   0.421
  EZG_352                   38.57       0.00       0.94      21.55      18.36       0.50      16.10        0.10     0.06   0.418
  EZG_372                   38.57       0.00       0.92      21.24      18.38       0.81      16.43        0.02     0.02   0.426
  EZG_416                   38.57       0.00       0.93      21.41      18.37       0.64      16.25        0.05     0.03   0.421
  EZG_388                   38.57       0.00       0.93      21.50      18.36       0.55      16.16        0.07     0.05   0.419
  EZG_394                   38.57       0.00       0.93      21.40      18.37       0.65      16.26        0.05     0.03   0.422
  EZG_400                   38.57       0.00       0.93      21.38      18.37       0.66      16.28        0.04     0.03   0.422
  EZG_390                   38.57       0.00       0.93      21.43      18.37       0.62      16.23        0.05     0.03   0.421
  EZG_350                   38.57       0.00       0.93      21.50      18.36       0.55      16.15        0.07     0.05   0.419
  EZG_370                   38.57       0.00       0.93      21.45      18.37       0.59      16.21        0.06     0.04   0.420
  EZG_398                   38.57       0.00       0.92      21.17      18.38       0.88      16.50        0.02     0.01   0.428
  EZG_382                   38.57       0.00       0.92      21.15      18.39       0.90      16.53        0.01     0.01   0.429
  EZG_374                   38.57       0.00       1.12      17.99      22.03       0.75      19.48        0.07     0.05   0.505
  EZG_412                   38.57       0.00       0.92      20.97      18.39       1.09      16.72        0.01     0.01   0.434
  EZG_344                   38.57       0.00       0.93      21.38      18.37       0.67      16.28        0.04     0.03   0.422
  EZG_376                   38.57       0.00       0.93      21.33      18.38       0.72      16.34        0.03     0.02   0.424
  EZG_356                   38.57       0.00       0.94      21.56      18.36       0.48      16.09        0.10     0.06   0.417
  EZG_386                   38.57       0.00       0.94      21.60      18.36       0.44      16.05        0.13     0.08   0.416
  EZG_380                   38.57       0.00       0.93      21.47      18.37       0.58      16.19        0.06     0.04   0.420
  EZG_378                   38.57       0.00       0.93      21.44      18.37       0.60      16.22        0.06     0.04   0.420
  EZG_414                   38.57       0.00       0.92      21.15      18.39       0.91      16.53        0.01     0.01   0.429
  EZG_402                   38.57       0.00       0.93      21.43      18.37       0.61      16.23        0.05     0.04   0.421
  EZG_358                   38.57       0.00       0.94      21.56      18.36       0.48      16.09        0.10     0.06   0.417
  EZG_364                   38.57       0.00       0.94      21.56      18.36       0.48      16.09        0.10     0.06   0.417
  EZG_410                   38.57       0.00       0.93      21.34      18.37       0.71      16.33        0.03     0.02   0.423
  EZG_366                   38.57       0.00       0.93      21.37      18.37       0.68      16.30        0.04     0.03   0.423
  EZG_18259                 38.57       0.00       0.93      21.37      18.37       0.68      16.30        0.04     0.03   0.423
  EZG_18258                 38.57       0.00       0.92      21.07      18.39       0.99      16.62        0.01     0.01   0.431
  EZG_346                   38.57       0.00       0.91      21.80      18.00       0.58      15.88        0.06     0.04   0.412
  EZG_348                   38.57       0.00       0.91      21.70      18.01       0.68      15.99        0.04     0.02   0.414
  
  
  ******************
  Node Depth Summary
  ******************
  
  ---------------------------------------------------------------------------------
                                 Average  Maximum  Maximum  Time of Max    Reported
                                   Depth    Depth      HGL   Occurrence   Max Depth
  Node                 Type       Meters   Meters   Meters  days hr:min      Meters
  ---------------------------------------------------------------------------------
  R0019466             JUNCTION     0.01     0.40    69.85     0  18:04        0.39
  R0019468             JUNCTION     0.01     0.39    69.70     0  18:05        0.37
  R0019831             JUNCTION     0.00     0.14    69.31     0  18:05        0.14
  R0019825             JUNCTION     0.01     0.26    69.10     0  18:05        0.25
  R0019843             JUNCTION     0.01     0.36    67.99     0  18:06        0.36
  R0019368             JUNCTION     0.01     0.54    67.33     0  18:06        0.54
  R0019369             JUNCTION     0.01     0.39    66.98     0  18:06        0.39
  R0019370             JUNCTION     0.01     0.33    66.23     0  18:07        0.33
  R0019345             JUNCTION     0.01     0.26    70.16     0  18:05        0.25
  R0019346             JUNCTION     0.00     0.23    70.03     0  18:05        0.23
  R0043600             JUNCTION     0.01     0.26    69.93     0  18:06        0.26
  R0019203             JUNCTION     0.01     0.30    69.84     0  18:06        0.30
  R0043594             JUNCTION     0.00     0.22    69.95     0  18:05        0.21
  R0021458             JUNCTION     0.01     0.26    69.91     0  18:05        0.26
  R0019202             JUNCTION     0.01     0.27    69.85     0  18:06        0.27
  R0019373             JUNCTION     0.00     0.21    69.88     0  18:05        0.20
  R0019254             JUNCTION     0.00     0.27    70.31     0  18:05        0.27
  R0019716             JUNCTION     0.01     0.33    69.34     0  18:06        0.33
  R0019946             JUNCTION     0.02     0.48    69.10     0  18:06        0.48
  R0013935             JUNCTION     0.00     0.13    68.96     0  18:05        0.13
  R0019939             JUNCTION     0.00     0.33    68.90     0  18:05        0.32
  R0019944             JUNCTION     0.01     0.30    68.58     0  18:06        0.30
  R0043703             JUNCTION     0.01     0.36    68.96     0  18:06        0.36
  R0019945             JUNCTION     0.01     0.37    68.77     0  18:06        0.37
  R0039621             JUNCTION     0.00     0.12    69.69     0  18:05        0.11
  R0019838             JUNCTION     0.01     0.22    69.68     0  18:05        0.22
  R0039606             JUNCTION     0.01     0.26    69.85     0  18:06        0.26
  R0019204             JUNCTION     0.00     0.00    69.91     0  00:00        0.00
  R0019205             JUNCTION     0.00     0.00    69.62     0  00:00        0.00
  R0019849             JUNCTION     0.00     0.36    68.88     0  18:06        0.36
  R0019371             JUNCTION     0.00     0.00    70.41     0  00:00        0.00
  R0019718             JUNCTION     0.01     0.37    69.79     0  18:06        0.37
  R0021442             JUNCTION     0.01     0.61    70.66     0  18:05        0.52
  R0019247             JUNCTION     0.01     0.32    70.20     0  18:05        0.31
  R0019719             JUNCTION     0.01     0.25    69.93     0  18:05        0.25
  R0019767             JUNCTION     0.01     0.35    65.08     0  18:07        0.35
  R0019768             JUNCTION     0.01     0.30    64.07     0  18:07        0.30
  R0021453             JUNCTION     0.00     0.09    70.04     0  18:05        0.09
  R0019839             JUNCTION     0.00     0.20    69.59     0  18:05        0.20
  R0019717             JUNCTION     0.01     0.33    69.67     0  18:05        0.33
  R0019252             JUNCTION     0.00     0.19    70.38     0  18:05        0.19
  R0019721             JUNCTION     0.00     0.20    70.07     0  18:05        0.19
  R0019942             JUNCTION     0.00     0.27    68.92     0  18:06        0.27
  R0019206             JUNCTION     0.00     0.00    69.07     0  00:00        0.00
  R0019840             JUNCTION     0.00     0.18    69.15     0  18:05        0.18
  R0043702             JUNCTION     0.01     0.28    68.98     0  18:05        0.27
  R0019723             JUNCTION     0.00     0.14    70.22     0  18:05        0.13
  R0019724             JUNCTION     0.00     0.07    70.23     0  18:05        0.07
  R0021433             JUNCTION     0.00     0.45    70.84     0  18:05        0.35
  R0021435             JUNCTION     0.00     0.59    70.77     0  18:05        0.50
  R0019769             OUTFALL      0.01     0.30    63.68     0  18:07        0.30
  
  
  *******************
  Node Inflow Summary
  *******************
  
  -------------------------------------------------------------------------------------------------
                                  Maximum  Maximum                  Lateral       Total        Flow
                                  Lateral    Total  Time of Max      Inflow      Inflow     Balance
                                   Inflow   Inflow   Occurrence      Volume      Volume       Error
  Node                 Type           CMS      CMS  days hr:min    10^6 ltr    10^6 ltr     Percent
  -------------------------------------------------------------------------------------------------
  R0019466             JUNCTION     0.043    0.074     0  18:04      0.0668       0.125       0.060
  R0019468             JUNCTION     0.027    0.092     0  18:04       0.039       0.164      -0.019
  R0019831             JUNCTION     0.035    0.035     0  18:05      0.0526      0.0526      -0.009
  R0019825             JUNCTION     0.035    0.069     0  18:05      0.0527       0.105       0.041
  R0019843             JUNCTION     0.000    0.824     0  18:06           0        1.65      -0.003
  R0019368             JUNCTION     0.000    0.822     0  18:06           0        1.65       0.001
  R0019369             JUNCTION     0.000    0.844     0  18:06           0        1.65       0.000
  R0019370             JUNCTION     0.000    0.819     0  18:07           0        1.65       0.002
  R0019345             JUNCTION     0.000    0.061     0  18:05           0       0.103      -0.003
  R0019346             JUNCTION     0.006    0.103     0  18:05     0.00667       0.173       0.008
  R0043600             JUNCTION     0.000    0.109     0  18:05           0         0.2       0.006
  R0019203             JUNCTION     0.011    0.236     0  18:06      0.0146       0.447      -0.003
  R0043594             JUNCTION     0.059    0.086     0  18:05      0.0951       0.136      -0.027
  R0021458             JUNCTION     0.047    0.124     0  18:05      0.0742       0.211      -0.006
  R0019202             JUNCTION     0.016    0.125     0  18:05      0.0222       0.233      -0.017
  R0019373             JUNCTION     0.038    0.038     0  18:05      0.0581      0.0581      -0.061
  R0019254             JUNCTION     0.032    0.066     0  18:05      0.0473       0.103       0.004
  R0019716             JUNCTION     0.047    0.465     0  18:05      0.0736        0.92      -0.005
  R0019946             JUNCTION     0.000    0.466     0  18:06           0        0.92      -0.002
  R0013935             JUNCTION     0.030    0.030     0  18:05      0.0451      0.0451       0.004
  R0019939             JUNCTION     0.012    0.042     0  18:05      0.0163      0.0615      -0.007
  R0019944             JUNCTION     0.029    0.593     0  18:06      0.0419        1.18       0.004
  R0043703             JUNCTION     0.034    0.493     0  18:06      0.0514       0.971       0.008
  R0019945             JUNCTION     0.000    0.579     0  18:06           0        1.14      -0.006
  R0039621             JUNCTION     0.000    0.003     0  18:02           0    0.000626       1.477
  R0019838             JUNCTION     0.063    0.063     0  18:05       0.103       0.104      -0.009
  R0039606             JUNCTION     0.000    0.116     0  18:05           0       0.211       0.026
  R0019204             JUNCTION     0.000    0.000     0  00:00           0           0       0.000 ltr
  R0019205             JUNCTION     0.000    0.000     0  00:00           0           0       0.000 ltr
  R0019849             JUNCTION     0.000    0.089     0  18:05           0       0.167       0.012
  R0019371             JUNCTION     0.000    0.000     0  00:00           0           0       0.000 ltr
  R0019718             JUNCTION     0.041    0.262     0  18:06       0.063        0.51      -0.489
  R0021442             JUNCTION     0.047    0.096     0  18:05      0.0738       0.167       0.033
  R0019247             JUNCTION     0.023    0.111     0  18:05      0.0326         0.2      -0.014
  R0019719             JUNCTION     0.024    0.121     0  18:05      0.0343       0.207      -0.007
  R0019767             JUNCTION     0.000    0.817     0  18:07           0        1.65      -0.004
  R0019768             JUNCTION     0.000    0.818     0  18:07           0        1.65       0.007
  R0021453             JUNCTION     0.028    0.028     0  18:05      0.0412      0.0412      -0.043
  R0019839             JUNCTION     0.063    0.119     0  18:05       0.102       0.205      -0.002
  R0019717             JUNCTION     0.077    0.431     0  18:05       0.128       0.848       0.226
  R0019252             JUNCTION     0.037    0.037     0  18:05      0.0556      0.0556      -0.000
  R0019721             JUNCTION     0.011    0.043     0  18:05      0.0144      0.0633       0.016
  R0019942             JUNCTION     0.000    0.065     0  18:05           0       0.105      -0.034
  R0019206             JUNCTION     0.000    0.000     0  00:00           0           0       0.000 ltr
  R0019840             JUNCTION     0.000    0.200     0  18:05           0       0.369       0.003
  R0043702             JUNCTION     0.063    0.257     0  18:05       0.102       0.471      -0.003
  R0019723             JUNCTION     0.027    0.034     0  18:05      0.0387      0.0489      -0.034
  R0019724             JUNCTION     0.008    0.008     0  18:05      0.0102      0.0102      -0.039
  R0021433             JUNCTION     0.038    0.038     0  18:05      0.0578      0.0578      -0.143
  R0021435             JUNCTION     0.025    0.058     0  18:05      0.0356      0.0934       0.033
  R0019769             OUTFALL      0.000    0.818     0  18:07           0        1.65       0.000
  
  
  **********************
  Node Surcharge Summary
  **********************
  
  Surcharging occurs when water rises above the top of the highest conduit.
  ---------------------------------------------------------------------
                                               Max. Height   Min. Depth
                                   Hours       Above Crown    Below Rim
  Node                 Type      Surcharged         Meters       Meters
  ---------------------------------------------------------------------
  R0019466             JUNCTION        0.05          0.104        2.406
  R0019468             JUNCTION        0.05          0.092        2.338
  R0019939             JUNCTION        0.03          0.034        1.586
  R0019849             JUNCTION        0.05          0.064        1.866
  R0021442             JUNCTION        0.08          0.314        1.436
  R0021433             JUNCTION        0.02          0.152        1.698
  R0021435             JUNCTION        0.05          0.294        1.516
  
  
  *********************
  Node Flooding Summary
  *********************
  
  No nodes were flooded.
  
  
  ***********************
  Outfall Loading Summary
  ***********************
  
  -----------------------------------------------------------
                         Flow       Avg       Max       Total
                         Freq      Flow      Flow      Volume
  Outfall Node           Pcnt       CMS       CMS    10^6 ltr
  -----------------------------------------------------------
  R0019769              26.84     0.010     0.818       1.651
  -----------------------------------------------------------
  System                26.84     0.010     0.818       1.651
  
  
  ********************
  Link Flow Summary
  ********************
  
  -----------------------------------------------------------------------------
                                 Maximum  Time of Max   Maximum    Max/    Max/
                                  |Flow|   Occurrence   |Veloc|    Full    Full
  Link                 Type          CMS  days hr:min     m/sec    Flow   Depth
  -----------------------------------------------------------------------------
  H0014431             CONDUIT     0.066     0  18:04      0.93    1.22    1.00
  H0014433             CONDUIT     0.034     0  18:05      0.69    0.43    0.66
  H0014352             CONDUIT     0.822     0  18:06      2.60    0.34    0.50
  H0014373             CONDUIT     0.819     0  18:07      3.46    0.38    0.40
  H0017981             CONDUIT     0.061     0  18:05      1.07    1.71    0.75
  H0017755             CONDUIT     0.107     0  18:06      1.31    0.87    0.62
  H0017791             CONDUIT     0.079     0  18:05      0.59    0.11    0.26
  H0017357             CONDUIT     0.003     0  18:05      0.11    0.05    0.41
  H0018216             CONDUIT     0.061     0  18:05      0.93    1.11    0.88
  H0016792             CONDUIT     0.466     0  18:06      1.70    0.27    0.45
  H0019507             CONDUIT     0.030     0  18:05      0.65    0.41    0.77
  H0019998             CONDUIT     0.592     0  18:06      2.82    0.24    0.37
  H0019576             CONDUIT     0.496     0  18:06      2.04    0.33    0.41
  H0020087             CONDUIT     0.005     0  18:06      0.12    0.02    0.34
  H0020211             CONDUIT     0.474     0  18:06      1.66    1.18    0.46
  H0018982             CONDUIT     0.116     0  18:05      0.76    0.19    0.29
  H0018753             CONDUIT     0.035     0  18:06      0.59    0.50    1.00
  H0018845             CONDUIT     0.000     0  00:00      0.00    0.00    0.00
  H0018863             CONDUIT     0.037     0  18:05      0.56    0.86    1.00
  H0019156             CONDUIT     0.000     0  00:00      0.00    0.00    0.00
  H0018929             CONDUIT     0.238     0  18:06      1.10    0.21    0.37
  H0018440             CONDUIT     0.094     0  18:05      1.33    1.68    1.00
  H0018456             CONDUIT     0.103     0  18:05      1.31    0.63    0.60
  H0018968             CONDUIT     0.818     0  18:07      3.94    0.31    0.36
  H0022036             CONDUIT     0.027     0  18:05      0.46    0.02    0.15
  H0021806             CONDUIT     0.109     0  18:05      1.13    0.96    0.72
  H0022111             CONDUIT     0.058     0  18:05      0.72    0.41    0.43
  H0021440             CONDUIT     0.433     0  18:06      2.07    0.28    0.36
  H0021704             CONDUIT     0.263     0  18:06      1.22    0.50    0.37
  H0020521             CONDUIT     0.034     0  18:05      0.61    0.70    0.77
  H0020755             CONDUIT     0.039     0  18:05      0.57    0.43    0.54
  H0020530             CONDUIT     0.844     0  18:06      2.55    0.72    0.52
  H0020618             CONDUIT     0.578     0  18:06      2.68    0.36    0.37
  H0021163             CONDUIT     0.065     0  18:05      1.15    1.08    0.85
  H0020497             CONDUIT     0.000     0  00:00      0.00    0.00    0.60
  H0024325             CONDUIT     0.116     0  18:05      1.66    0.35    0.39
  H0023585             CONDUIT     0.256     0  18:05      2.31    0.59    0.55
  H0024098             CONDUIT     0.087     0  18:06      1.23    1.02    1.00
  H0024235             CONDUIT     0.120     0  18:06      1.29    0.49    0.48
  H0024282             CONDUIT     0.000     0  00:00      0.00    0.00    0.00
  H0024308             CONDUIT     0.818     0  18:07      4.41    0.24    0.33
  H0024498             CONDUIT     0.084     0  18:04      1.20    1.30    1.00
  H0026990             CONDUIT     0.033     0  18:05      0.68    0.25    0.41
  H0041650             CONDUIT     0.124     0  18:06      0.73    0.14    0.31
  H0041011             CONDUIT     0.059     0  18:06      1.03    0.58    1.00
  H0045103             CONDUIT     0.112     0  18:05      0.72    0.14    0.29
  H0045104             CONDUIT     0.817     0  18:07      3.69    0.29    0.38
  H0045105             CONDUIT     0.008     0  18:05      0.35    0.14    0.35
  H0045106             CONDUIT     0.200     0  18:05      2.28    0.27    0.46
  H0045107             CONDUIT     0.036     0  18:05      0.68    0.59    1.00
  H0045108             CONDUIT     0.055     0  18:05      0.78    0.99    1.00
  
  
  ***************************
  Flow Classification Summary
  ***************************
  
  -------------------------------------------------------------------------------------
                      Adjusted    ---------- Fraction of Time in Flow Class ---------- 
                       /Actual         Up    Down  Sub   Sup   Up    Down  Norm  Inlet 
  Conduit               Length    Dry  Dry   Dry   Crit  Crit  Crit  Crit  Ltd   Ctrl  
  -------------------------------------------------------------------------------------
  H0014431                1.00   0.03  0.00  0.00  0.97  0.00  0.00  0.00  0.96  0.00
  H0014433                1.00   0.03  0.00  0.00  0.97  0.00  0.00  0.00  0.97  0.00
  H0014352                1.00   0.03  0.00  0.00  0.71  0.26  0.00  0.00  0.97  0.00
  H0014373                1.00   0.03  0.00  0.00  0.70  0.27  0.00  0.00  0.69  0.00
  H0017981                1.00   0.03  0.00  0.00  0.00  0.00  0.00  0.97  0.00  0.00
  H0017755                1.00   0.03  0.00  0.00  0.00  0.00  0.00  0.97  0.00  0.00
  H0017791                1.00   0.03  0.00  0.00  0.97  0.00  0.00  0.00  0.97  0.00
  H0017357                1.00   0.03  0.97  0.00  0.00  0.00  0.00  0.00  0.89  0.00
  H0018216                1.00   0.03  0.70  0.00  0.27  0.00  0.00  0.00  0.96  0.00
  H0016792                1.00   0.03  0.69  0.00  0.27  0.00  0.00  0.00  0.96  0.00
  H0019507                1.00   0.03  0.00  0.00  0.97  0.00  0.00  0.00  0.97  0.00
  H0019998                1.00   0.03  0.00  0.00  0.70  0.26  0.00  0.00  0.27  0.00
  H0019576                1.00   0.03  0.00  0.00  0.90  0.07  0.00  0.00  0.27  0.00
  H0020087                1.00   0.03  0.96  0.00  0.00  0.00  0.00  0.00  0.89  0.00
  H0020211                1.00   0.03  0.00  0.00  0.97  0.00  0.00  0.00  0.69  0.00
  H0018982                1.00   0.03  0.00  0.00  0.97  0.00  0.00  0.00  0.70  0.00
  H0018753                1.00   0.03  0.00  0.00  0.97  0.00  0.00  0.00  0.97  0.00
  H0018845                1.00   1.00  0.00  0.00  0.00  0.00  0.00  0.00  0.00  0.00
  H0018863                1.00   0.03  0.00  0.00  0.97  0.00  0.00  0.00  0.96  0.00
  H0019156                1.00   1.00  0.00  0.00  0.00  0.00  0.00  0.00  0.00  0.00
  H0018929                1.00   0.03  0.70  0.00  0.27  0.00  0.00  0.00  0.97  0.00
  H0018440                1.00   0.03  0.00  0.00  0.97  0.00  0.00  0.00  0.96  0.00
  H0018456                1.00   0.03  0.00  0.00  0.97  0.00  0.00  0.00  0.96  0.00
  H0018968                1.00   0.03  0.69  0.00  0.01  0.27  0.00  0.00  0.70  0.00
  H0022036                1.00   0.03  0.00  0.00  0.01  0.01  0.00  0.95  0.01  0.00
  H0021806                1.00   0.03  0.70  0.00  0.27  0.00  0.00  0.00  0.91  0.00
  H0022111                1.00   0.03  0.00  0.00  0.97  0.00  0.00  0.00  0.00  0.00
  H0021440                1.00   0.03  0.00  0.00  0.71  0.26  0.00  0.00  0.01  0.00
  H0021704                1.00   0.03  0.00  0.00  0.00  0.00  0.00  0.97  0.00  0.00
  H0020521                1.00   0.03  0.00  0.00  0.97  0.00  0.00  0.00  0.97  0.00
  H0020755                1.00   0.03  0.70  0.00  0.27  0.00  0.00  0.00  0.96  0.00
  H0020530                1.00   0.03  0.00  0.00  0.71  0.26  0.00  0.00  0.00  0.00
  H0020618                1.00   0.03  0.00  0.00  0.70  0.26  0.00  0.00  0.70  0.00
  H0021163                1.00   0.03  0.00  0.00  0.96  0.00  0.00  0.00  0.70  0.00
  H0020497                1.20   0.03  0.97  0.00  0.00  0.00  0.00  0.00  0.00  0.00
  H0024325                1.00   0.03  0.00  0.00  0.71  0.26  0.00  0.00  0.70  0.00
  H0023585                1.00   0.03  0.00  0.00  0.00  0.00  0.00  0.97  0.00  0.00
  H0024098                1.00   0.03  0.70  0.00  0.27  0.00  0.00  0.00  0.96  0.00
  H0024235                1.00   0.03  0.00  0.00  0.00  0.00  0.00  0.97  0.00  0.00
  H0024282                1.00   1.00  0.00  0.00  0.00  0.00  0.00  0.00  0.00  0.00
  H0024308                1.00   0.03  0.00  0.00  0.69  0.27  0.00  0.00  0.07  0.00
  H0024498                1.00   0.03  0.00  0.00  0.00  0.00  0.00  0.97  0.00  0.00
  H0026990                1.00   0.03  0.00  0.00  0.97  0.00  0.00  0.00  0.97  0.00
  H0041650                1.00   0.73  0.00  0.00  0.27  0.00  0.00  0.00  0.96  0.00
  H0041011                1.00   0.03  0.00  0.00  0.97  0.00  0.00  0.00  0.96  0.00
  H0045103                1.00   0.03  0.00  0.00  0.97  0.00  0.00  0.00  0.93  0.00
  H0045104                1.00   0.03  0.00  0.00  0.70  0.27  0.00  0.00  0.27  0.00
  H0045105                1.00   0.03  0.00  0.00  0.97  0.00  0.00  0.00  0.97  0.00
  H0045106                1.00   0.03  0.70  0.00  0.01  0.26  0.00  0.00  0.97  0.00
  H0045107                1.00   0.03  0.00  0.00  0.97  0.00  0.00  0.00  0.96  0.00
  H0045108                1.00   0.03  0.00  0.00  0.97  0.00  0.00  0.00  0.97  0.00
  
  
  *************************
  Conduit Surcharge Summary
  *************************
  
  ----------------------------------------------------------------------------
                                                           Hours        Hours 
                         --------- Hours Full --------   Above Full   Capacity
  Conduit                Both Ends  Upstream  Dnstream   Normal Flow   Limited
  ----------------------------------------------------------------------------
  H0014431                    0.05      0.05      0.05      0.07         0.05
  H0017981                    0.01      0.01      0.01      0.09         0.01
  H0018216                    0.01      0.01      0.01      0.03         0.01
  H0019507                    0.01      0.01      0.03      0.01         0.01
  H0020211                    0.01      0.01      0.01      0.05         0.01
  H0018753                    0.01      0.01      0.05      0.01         0.01
  H0018863                    0.03      0.03      0.05      0.01         0.01
  H0018440                    0.02      0.08      0.02      0.11         0.06
  H0021163                    0.01      0.01      0.01      0.02         0.01
  H0024098                    0.05      0.05      0.09      0.01         0.01
  H0024498                    0.01      0.05      0.01      0.08         0.01
  H0041011                    0.01      0.01      0.05      0.01         0.01
  H0045107                    0.02      0.02      0.05      0.01         0.01
  H0045108                    0.05      0.05      0.08      0.01         0.01
  

  Analysis begun on:  Thu Mar 21 16:50:50 2024
  Analysis ended on:  Thu Mar 21 16:51:01 2024
  Total elapsed time: 00:00:11