
  EPA STORM WATER MANAGEMENT MODEL - VERSION 5.2 (Build 5.2.4)
  PYSWMM TOOLKIT API - VERSION v1.0 (2023-11-27)
  ------------------------------------------------------------

  
  ****************
  Analysis Options
  ****************
  Flow Units ............... CMS
  Process Models:
    Rainfall/Runoff ........ YES
    RDII ................... NO
    Snowmelt ............... NO
    Groundwater ............ NO
    Flow Routing ........... YES
    Ponding Allowed ........ NO
    Water Quality .......... NO
  Infiltration Method ...... HORTON
  Flow Routing Method ...... DYNWAVE
  Surcharge Method ......... SLOT
  Starting Date ............ 01/01/2024 00:00:00
  Ending Date .............. 01/08/2024 04:00:00
  Antecedent Dry Days ...... 14.0
  Report Time Step ......... 00:01:00
  Wet Time Step ............ 00:01:00
  Dry Time Step ............ 00:01:00
  Routing Time Step ........ 1.00 sec
  Variable Time Step ....... YES
  Maximum Trials ........... 8
  Number of Threads ........ 4
  Head Tolerance ........... 0.001500 m
  
  
  **************************        Volume         Depth
  Runoff Quantity Continuity     hectare-m            mm
  **************************     ---------       -------
  Total Precipitation ......         0.478        47.210
  Evaporation Loss .........         0.009         0.933
  Infiltration Loss ........         0.264        26.068
  Surface Runoff ...........         0.205        20.229
  Final Storage ............         0.000         0.000
  Continuity Error (%) .....        -0.042
  
  
  **************************        Volume        Volume
  Flow Routing Continuity        hectare-m      10^6 ltr
  **************************     ---------     ---------
  Dry Weather Inflow .......         0.000         0.000
  Wet Weather Inflow .......         0.205         2.048
  Groundwater Inflow .......         0.000         0.000
  RDII Inflow ..............         0.000         0.000
  External Inflow ..........         0.000         0.000
  External Outflow .........         0.205         2.048
  Flooding Loss ............         0.000         0.000
  Evaporation Loss .........         0.000         0.000
  Exfiltration Loss ........         0.000         0.000
  Initial Stored Volume ....         0.000         0.000
  Final Stored Volume ......         0.000         0.000
  Continuity Error (%) .....        -0.034
  
  
  ***************************
  Time-Step Critical Elements
  ***************************
  None
  
  
  ********************************
  Highest Flow Instability Indexes
  ********************************
  All links are stable.
  
  
  *********************************
  Most Frequent Nonconverging Nodes
  *********************************
  Convergence obtained at all time steps.
  
  
  *************************
  Routing Time Step Summary
  *************************
  Minimum Time Step           :     0.05 sec
  Average Time Step           :     1.00 sec
  Maximum Time Step           :     1.00 sec
  % of Time in Steady State   :     0.00
  Average Iterations per Step :     2.00
  % of Steps Not Converging   :     0.00
  Time Step Frequencies       :
      1.000 -  0.871 sec      :   100.00 %
      0.871 -  0.758 sec      :     0.00 %
      0.758 -  0.660 sec      :     0.00 %
      0.660 -  0.574 sec      :     0.00 %
      0.574 -  0.500 sec      :     0.00 %
  
  
  ***************************
  Subcatchment Runoff Summary
  ***************************
  
  ------------------------------------------------------------------------------------------------------------------------------
                            Total      Total      Total      Total     Imperv       Perv      Total       Total     Peak  Runoff
                           Precip      Runon       Evap      Infil     Runoff     Runoff     Runoff      Runoff   Runoff   Coeff
  Subcatchment                 mm         mm         mm         mm         mm         mm         mm    10^6 ltr      CMS
  ------------------------------------------------------------------------------------------------------------------------------
  EZG_368                   47.21       0.00       0.93      26.22      22.69       0.79      20.08        0.08     0.04   0.425
  EZG_392                   47.21       0.00       0.93      26.16      22.69       0.85      20.15        0.07     0.04   0.427
  EZG_352                   47.21       0.00       0.93      26.31      22.69       0.71      19.99        0.12     0.06   0.423
  EZG_372                   47.21       0.00       0.92      25.94      22.70       1.08      20.38        0.03     0.02   0.432
  EZG_416                   47.21       0.00       0.92      26.13      22.70       0.88      20.17        0.06     0.03   0.427
  EZG_388                   47.21       0.00       0.93      26.24      22.69       0.77      20.06        0.09     0.05   0.425
  EZG_394                   47.21       0.00       0.92      26.12      22.70       0.89      20.19        0.06     0.03   0.428
  EZG_400                   47.21       0.00       0.92      26.10      22.70       0.91      20.21        0.05     0.03   0.428
  EZG_390                   47.21       0.00       0.93      26.15      22.69       0.86      20.15        0.06     0.04   0.427
  EZG_350                   47.21       0.00       0.93      26.25      22.69       0.77      20.05        0.09     0.05   0.425
  EZG_370                   47.21       0.00       0.93      26.19      22.69       0.83      20.12        0.07     0.04   0.426
  EZG_398                   47.21       0.00       0.92      25.86      22.71       1.17      20.47        0.02     0.01   0.434
  EZG_382                   47.21       0.00       0.92      25.83      22.71       1.20      20.50        0.02     0.01   0.434
  EZG_374                   47.21       0.00       1.12      22.03      27.23       0.95      24.09        0.09     0.05   0.510
  EZG_412                   47.21       0.00       0.91      25.62      22.72       1.41      20.72        0.01     0.01   0.439
  EZG_344                   47.21       0.00       0.92      26.10      22.70       0.92      20.21        0.05     0.03   0.428
  EZG_376                   47.21       0.00       0.92      26.04      22.70       0.98      20.28        0.04     0.02   0.429
  EZG_356                   47.21       0.00       0.93      26.32      22.69       0.69      19.97        0.13     0.07   0.423
  EZG_386                   47.21       0.00       0.93      26.37      22.68       0.64      19.92        0.16     0.08   0.422
  EZG_380                   47.21       0.00       0.93      26.21      22.69       0.81      20.10        0.08     0.04   0.426
  EZG_378                   47.21       0.00       0.93      26.17      22.69       0.84      20.13        0.07     0.04   0.426
  EZG_414                   47.21       0.00       0.92      25.82      22.71       1.20      20.50        0.02     0.01   0.434
  EZG_402                   47.21       0.00       0.93      26.16      22.69       0.85      20.14        0.07     0.04   0.427
  EZG_358                   47.21       0.00       0.93      26.32      22.69       0.69      19.97        0.13     0.06   0.423
  EZG_364                   47.21       0.00       0.93      26.32      22.69       0.69      19.97        0.13     0.06   0.423
  EZG_410                   47.21       0.00       0.92      26.05      22.70       0.97      20.26        0.04     0.02   0.429
  EZG_366                   47.21       0.00       0.92      26.08      22.70       0.93      20.23        0.05     0.03   0.428
  EZG_18259                 47.21       0.00       0.92      26.08      22.70       0.93      20.23        0.05     0.03   0.428
  EZG_18258                 47.21       0.00       0.92      25.73      22.71       1.29      20.60        0.01     0.01   0.436
  EZG_346                   47.21       0.00       0.91      26.61      22.24       0.81      19.72        0.07     0.04   0.418
  EZG_348                   47.21       0.00       0.90      26.48      22.25       0.94      19.85        0.04     0.03   0.420
  
  
  ******************
  Node Depth Summary
  ******************
  
  ---------------------------------------------------------------------------------
                                 Average  Maximum  Maximum  Time of Max    Reported
                                   Depth    Depth      HGL   Occurrence   Max Depth
  Node                 Type       Meters   Meters   Meters  days hr:min      Meters
  ---------------------------------------------------------------------------------
  R0019466             JUNCTION     0.01     0.42    69.87     1  18:05        0.40
  R0019468             JUNCTION     0.01     0.41    69.72     1  18:05        0.40
  R0019831             JUNCTION     0.01     0.14    69.31     1  18:05        0.14
  R0019825             JUNCTION     0.01     0.27    69.11     1  18:05        0.26
  R0019843             JUNCTION     0.02     0.37    68.00     1  18:06        0.36
  R0019368             JUNCTION     0.02     0.55    67.34     1  18:06        0.55
  R0019369             JUNCTION     0.02     0.40    66.99     1  18:06        0.39
  R0019370             JUNCTION     0.01     0.34    66.24     1  18:07        0.34
  R0019345             JUNCTION     0.01     0.26    70.16     1  18:05        0.26
  R0019346             JUNCTION     0.01     0.24    70.04     1  18:05        0.24
  R0043600             JUNCTION     0.01     0.27    69.94     1  18:06        0.27
  R0019203             JUNCTION     0.01     0.31    69.85     1  18:06        0.30
  R0043594             JUNCTION     0.01     0.22    69.95     1  18:05        0.22
  R0021458             JUNCTION     0.01     0.27    69.92     1  18:05        0.26
  R0019202             JUNCTION     0.01     0.28    69.86     1  18:06        0.27
  R0019373             JUNCTION     0.01     0.23    69.90     1  18:05        0.22
  R0019254             JUNCTION     0.01     0.28    70.32     1  18:05        0.28
  R0019716             JUNCTION     0.01     0.34    69.35     1  18:06        0.34
  R0019946             JUNCTION     0.03     0.48    69.10     1  18:06        0.48
  R0013935             JUNCTION     0.00     0.14    68.97     1  18:05        0.14
  R0019939             JUNCTION     0.01     0.35    68.92     1  18:05        0.34
  R0019944             JUNCTION     0.01     0.30    68.58     1  18:06        0.30
  R0043703             JUNCTION     0.02     0.37    68.97     1  18:06        0.37
  R0019945             JUNCTION     0.02     0.38    68.78     1  18:06        0.38
  R0039621             JUNCTION     0.00     0.12    69.69     1  18:05        0.11
  R0019838             JUNCTION     0.01     0.23    69.69     1  18:05        0.22
  R0039606             JUNCTION     0.01     0.27    69.86     1  18:06        0.27
  R0019204             JUNCTION     0.00     0.00    69.91     0  00:00        0.00
  R0019205             JUNCTION     0.00     0.00    69.62     0  00:00        0.00
  R0019849             JUNCTION     0.01     0.38    68.90     1  18:05        0.38
  R0019371             JUNCTION     0.00     0.00    70.41     0  00:00        0.00
  R0019718             JUNCTION     0.03     0.38    69.80     1  18:06        0.38
  R0021442             JUNCTION     0.01     0.68    70.73     1  18:05        0.58
  R0019247             JUNCTION     0.01     0.33    70.21     1  18:05        0.33
  R0019719             JUNCTION     0.01     0.25    69.93     1  18:05        0.25
  R0019767             JUNCTION     0.02     0.36    65.09     1  18:07        0.36
  R0019768             JUNCTION     0.01     0.31    64.08     1  18:07        0.31
  R0021453             JUNCTION     0.00     0.09    70.04     1  18:05        0.09
  R0019839             JUNCTION     0.01     0.21    69.60     1  18:05        0.21
  R0019717             JUNCTION     0.01     0.33    69.67     1  18:05        0.33
  R0019252             JUNCTION     0.01     0.19    70.38     1  18:05        0.19
  R0019721             JUNCTION     0.01     0.20    70.07     1  18:05        0.20
  R0019942             JUNCTION     0.01     0.30    68.95     1  18:05        0.30
  R0019206             JUNCTION     0.00     0.00    69.07     0  00:00        0.00
  R0019840             JUNCTION     0.01     0.19    69.16     1  18:05        0.18
  R0043702             JUNCTION     0.01     0.28    68.98     1  18:05        0.28
  R0019723             JUNCTION     0.01     0.14    70.22     1  18:05        0.14
  R0019724             JUNCTION     0.00     0.08    70.24     1  18:05        0.08
  R0021433             JUNCTION     0.01     0.50    70.89     1  18:05        0.46
  R0021435             JUNCTION     0.01     0.66    70.84     1  18:05        0.57
  R0019769             OUTFALL      0.01     0.31    63.69     1  18:07        0.30
  
  
  *******************
  Node Inflow Summary
  *******************
  
  -------------------------------------------------------------------------------------------------
                                  Maximum  Maximum                  Lateral       Total        Flow
                                  Lateral    Total  Time of Max      Inflow      Inflow     Balance
                                   Inflow   Inflow   Occurrence      Volume      Volume       Error
  Node                 Type           CMS      CMS  days hr:min    10^6 ltr    10^6 ltr     Percent
  -------------------------------------------------------------------------------------------------
  R0019466             JUNCTION     0.045    0.075     1  18:04       0.083       0.155       0.056
  R0019468             JUNCTION     0.028    0.093     1  18:04      0.0484       0.203      -0.016
  R0019831             JUNCTION     0.036    0.036     1  18:05      0.0652      0.0652      -0.005
  R0019825             JUNCTION     0.036    0.071     1  18:05      0.0654       0.131       0.052
  R0019843             JUNCTION     0.000    0.850     1  18:06           0        2.05      -0.002
  R0019368             JUNCTION     0.000    0.849     1  18:06           0        2.05       0.002
  R0019369             JUNCTION     0.000    0.875     1  18:06           0        2.05      -0.002
  R0019370             JUNCTION     0.000    0.849     1  18:06           0        2.05       0.002
  R0019345             JUNCTION     0.000    0.063     1  18:05           0       0.128      -0.005
  R0019346             JUNCTION     0.006    0.107     1  18:05     0.00827       0.215       0.006
  R0043600             JUNCTION     0.000    0.114     1  18:05           0       0.248       0.002
  R0019203             JUNCTION     0.012    0.247     1  18:06      0.0181       0.555      -0.002
  R0043594             JUNCTION     0.061    0.089     1  18:05       0.118       0.169      -0.022
  R0021458             JUNCTION     0.049    0.128     1  18:05      0.0921       0.261      -0.005
  R0019202             JUNCTION     0.017    0.130     1  18:05      0.0276       0.289      -0.018
  R0019373             JUNCTION     0.040    0.040     1  18:05      0.0721      0.0721      -0.052
  R0019254             JUNCTION     0.033    0.068     1  18:05      0.0588       0.128       0.005
  R0019716             JUNCTION     0.049    0.482     1  18:06      0.0914        1.14      -0.004
  R0019946             JUNCTION     0.000    0.482     1  18:06           0        1.14      -0.002
  R0013935             JUNCTION     0.032    0.032     1  18:05       0.056       0.056       0.015
  R0019939             JUNCTION     0.013    0.044     1  18:05      0.0203      0.0763      -0.014
  R0019944             JUNCTION     0.030    0.614     1  18:06      0.0521        1.46       0.004
  R0043703             JUNCTION     0.036    0.510     1  18:06      0.0638        1.21       0.007
  R0019945             JUNCTION     0.000    0.599     1  18:06           0        1.41      -0.005
  R0039621             JUNCTION     0.000    0.003     1  18:02           0    0.000652       1.421
  R0019838             JUNCTION     0.065    0.065     1  18:05       0.128       0.129      -0.007
  R0039606             JUNCTION     0.000    0.120     1  18:05           0       0.261       0.020
  R0019204             JUNCTION     0.000    0.000     0  00:00           0           0       0.000 ltr
  R0019205             JUNCTION     0.000    0.000     0  00:00           0           0       0.000 ltr
  R0019849             JUNCTION     0.000    0.093     1  18:05           0       0.207       0.010
  R0019371             JUNCTION     0.000    0.000     0  00:00           0           0       0.000 ltr
  R0019718             JUNCTION     0.043    0.275     1  18:06      0.0782       0.633      -0.428
  R0021442             JUNCTION     0.048    0.101     1  18:05      0.0913       0.207       0.028
  R0019247             JUNCTION     0.024    0.118     1  18:05      0.0404       0.248      -0.010
  R0019719             JUNCTION     0.025    0.125     1  18:05      0.0425       0.257      -0.006
  R0019767             JUNCTION     0.000    0.847     1  18:07           0        2.05      -0.004
  R0019768             JUNCTION     0.000    0.849     1  18:07           0        2.05       0.006
  R0021453             JUNCTION     0.029    0.029     1  18:05      0.0511      0.0511      -0.032
  R0019839             JUNCTION     0.065    0.122     1  18:05       0.126       0.254      -0.001
  R0019717             JUNCTION     0.079    0.449     1  18:06       0.159        1.05       0.198
  R0019252             JUNCTION     0.038    0.038     1  18:05       0.069       0.069       0.002
  R0019721             JUNCTION     0.012    0.045     1  18:05      0.0178      0.0785       0.013
  R0019942             JUNCTION     0.000    0.067     1  18:05           0       0.131      -0.047
  R0019206             JUNCTION     0.000    0.000     0  00:00           0           0       0.000 ltr
  R0019840             JUNCTION     0.000    0.205     1  18:05           0       0.458       0.002
  R0043702             JUNCTION     0.065    0.263     1  18:05       0.127       0.584      -0.002
  R0019723             JUNCTION     0.028    0.036     1  18:05      0.0481      0.0607      -0.027
  R0019724             JUNCTION     0.008    0.008     1  18:05      0.0126      0.0126      -0.033
  R0021433             JUNCTION     0.039    0.039     1  18:05      0.0717      0.0717      -0.127
  R0021435             JUNCTION     0.026    0.061     1  18:05      0.0441       0.116       0.026
  R0019769             OUTFALL      0.000    0.850     1  18:07           0        2.05       0.000
  
  
  **********************
  Node Surcharge Summary
  **********************
  
  Surcharging occurs when water rises above the top of the highest conduit.
  ---------------------------------------------------------------------
                                               Max. Height   Min. Depth
                                   Hours       Above Crown    Below Rim
  Node                 Type      Surcharged         Meters       Meters
  ---------------------------------------------------------------------
  R0019466             JUNCTION        0.06          0.122        2.388
  R0019468             JUNCTION        0.05          0.106        2.324
  R0019939             JUNCTION        0.04          0.049        1.571
  R0019849             JUNCTION        0.06          0.080        1.850
  R0021442             JUNCTION        0.08          0.378        1.372
  R0021433             JUNCTION        0.03          0.201        1.649
  R0021435             JUNCTION        0.06          0.365        1.445
  
  
  *********************
  Node Flooding Summary
  *********************
  
  No nodes were flooded.
  
  
  ***********************
  Outfall Loading Summary
  ***********************
  
  -----------------------------------------------------------
                         Flow       Avg       Max       Total
                         Freq      Flow      Flow      Volume
  Outfall Node           Pcnt       CMS       CMS    10^6 ltr
  -----------------------------------------------------------
  R0019769              66.38     0.005     0.850       2.048
  -----------------------------------------------------------
  System                66.38     0.005     0.850       2.048
  
  
  ********************
  Link Flow Summary
  ********************
  
  -----------------------------------------------------------------------------
                                 Maximum  Time of Max   Maximum    Max/    Max/
                                  |Flow|   Occurrence   |Veloc|    Full    Full
  Link                 Type          CMS  days hr:min     m/sec    Flow   Depth
  -----------------------------------------------------------------------------
  H0014431             CONDUIT     0.066     1  18:04      0.94    1.23    1.00
  H0014433             CONDUIT     0.035     1  18:05      0.69    0.45    0.68
  H0014352             CONDUIT     0.849     1  18:06      2.62    0.35    0.51
  H0014373             CONDUIT     0.849     1  18:06      3.50    0.39    0.41
  H0017981             CONDUIT     0.062     1  18:05      1.08    1.76    0.76
  H0017755             CONDUIT     0.112     1  18:06      1.33    0.91    0.64
  H0017791             CONDUIT     0.081     1  18:05      0.59    0.12    0.27
  H0017357             CONDUIT     0.005     1  18:05      0.17    0.09    0.47
  H0018216             CONDUIT     0.063     1  18:05      0.94    1.15    0.91
  H0016792             CONDUIT     0.482     1  18:06      1.72    0.28    0.46
  H0019507             CONDUIT     0.031     1  18:05      0.65    0.43    0.80
  H0019998             CONDUIT     0.614     1  18:06      2.85    0.25    0.37
  H0019576             CONDUIT     0.513     1  18:06      2.05    0.34    0.42
  H0020087             CONDUIT     0.005     1  18:06      0.12    0.02    0.35
  H0020211             CONDUIT     0.490     1  18:06      1.68    1.22    0.47
  H0018982             CONDUIT     0.120     1  18:05      0.77    0.19    0.30
  H0018753             CONDUIT     0.035     1  18:06      0.60    0.50    1.00
  H0018845             CONDUIT     0.000     0  00:00      0.00    0.00    0.00
  H0018863             CONDUIT     0.040     1  18:05      0.56    0.94    1.00
  H0019156             CONDUIT     0.000     0  00:00      0.00    0.00    0.00
  H0018929             CONDUIT     0.249     1  18:06      1.12    0.22    0.38
  H0018440             CONDUIT     0.098     1  18:05      1.39    1.76    1.00
  H0018456             CONDUIT     0.107     1  18:05      1.32    0.65    0.62
  H0018968             CONDUIT     0.849     1  18:07      3.98    0.33    0.37
  H0022036             CONDUIT     0.028     1  18:05      0.46    0.02    0.16
  H0021806             CONDUIT     0.114     1  18:05      1.14    1.01    0.74
  H0022111             CONDUIT     0.059     1  18:05      0.73    0.42    0.43
  H0021440             CONDUIT     0.451     1  18:06      2.09    0.29    0.37
  H0021704             CONDUIT     0.275     1  18:06      1.24    0.52    0.38
  H0020521             CONDUIT     0.035     1  18:05      0.61    0.71    0.80
  H0020755             CONDUIT     0.041     1  18:05      0.57    0.45    0.55
  H0020530             CONDUIT     0.875     1  18:06      2.58    0.75    0.53
  H0020618             CONDUIT     0.598     1  18:06      2.70    0.37    0.38
  H0021163             CONDUIT     0.067     1  18:05      1.15    1.12    0.92
  H0020497             CONDUIT     0.000     0  00:00      0.00    0.00    0.61
  H0024325             CONDUIT     0.120     1  18:05      1.67    0.36    0.39
  H0023585             CONDUIT     0.262     1  18:05      2.32    0.60    0.56
  H0024098             CONDUIT     0.092     1  18:05      1.30    1.08    1.00
  H0024235             CONDUIT     0.125     1  18:06      1.30    0.51    0.49
  H0024282             CONDUIT     0.000     0  00:00      0.00    0.00    0.00
  H0024308             CONDUIT     0.850     1  18:07      4.45    0.25    0.34
  H0024498             CONDUIT     0.086     1  18:05      1.21    1.33    1.00
  H0026990             CONDUIT     0.034     1  18:05      0.68    0.26    0.42
  H0041650             CONDUIT     0.129     1  18:06      0.73    0.15    0.32
  H0041011             CONDUIT     0.062     1  18:06      1.03    0.62    1.00
  H0045103             CONDUIT     0.115     1  18:06      0.72    0.14    0.30
  H0045104             CONDUIT     0.847     1  18:07      3.72    0.30    0.39
  H0045105             CONDUIT     0.008     1  18:05      0.36    0.14    0.36
  H0045106             CONDUIT     0.205     1  18:05      2.29    0.28    0.47
  H0045107             CONDUIT     0.037     1  18:05      0.69    0.61    1.00
  H0045108             CONDUIT     0.057     1  18:05      0.80    1.02    1.00
  
  
  ***************************
  Flow Classification Summary
  ***************************
  
  -------------------------------------------------------------------------------------
                      Adjusted    ---------- Fraction of Time in Flow Class ---------- 
                       /Actual         Up    Down  Sub   Sup   Up    Down  Norm  Inlet 
  Conduit               Length    Dry  Dry   Dry   Crit  Crit  Crit  Crit  Ltd   Ctrl  
  -------------------------------------------------------------------------------------
  H0014431                1.00   0.06  0.00  0.00  0.94  0.00  0.00  0.00  0.94  0.00
  H0014433                1.00   0.06  0.00  0.00  0.94  0.00  0.00  0.00  0.94  0.00
  H0014352                1.00   0.06  0.00  0.00  0.29  0.65  0.00  0.00  0.94  0.00
  H0014373                1.00   0.06  0.00  0.00  0.28  0.66  0.00  0.00  0.28  0.00
  H0017981                1.00   0.06  0.00  0.00  0.00  0.00  0.00  0.94  0.00  0.00
  H0017755                1.00   0.06  0.00  0.00  0.00  0.00  0.00  0.94  0.00  0.00
  H0017791                1.00   0.06  0.00  0.00  0.94  0.00  0.00  0.00  0.94  0.00
  H0017357                1.00   0.06  0.94  0.00  0.00  0.00  0.00  0.00  0.76  0.00
  H0018216                1.00   0.06  0.28  0.00  0.67  0.00  0.00  0.00  0.94  0.00
  H0016792                1.00   0.06  0.28  0.00  0.67  0.00  0.00  0.00  0.94  0.00
  H0019507                1.00   0.06  0.00  0.00  0.94  0.00  0.00  0.00  0.94  0.00
  H0019998                1.00   0.06  0.00  0.00  0.29  0.66  0.00  0.00  0.67  0.00
  H0019576                1.00   0.06  0.00  0.00  0.87  0.07  0.00  0.00  0.66  0.00
  H0020087                1.00   0.06  0.94  0.00  0.00  0.00  0.00  0.00  0.75  0.00
  H0020211                1.00   0.06  0.00  0.00  0.94  0.00  0.00  0.00  0.27  0.00
  H0018982                1.00   0.06  0.00  0.00  0.94  0.00  0.00  0.00  0.29  0.00
  H0018753                1.00   0.06  0.00  0.00  0.94  0.00  0.00  0.00  0.94  0.00
  H0018845                1.00   1.00  0.00  0.00  0.00  0.00  0.00  0.00  0.00  0.00
  H0018863                1.00   0.06  0.00  0.00  0.94  0.00  0.00  0.00  0.94  0.00
  H0019156                1.00   1.00  0.00  0.00  0.00  0.00  0.00  0.00  0.00  0.00
  H0018929                1.00   0.06  0.28  0.00  0.67  0.00  0.00  0.00  0.94  0.00
  H0018440                1.00   0.06  0.00  0.00  0.94  0.00  0.00  0.00  0.94  0.00
  H0018456                1.00   0.06  0.00  0.00  0.94  0.00  0.00  0.00  0.94  0.00
  H0018968                1.00   0.06  0.00  0.00  0.28  0.66  0.00  0.00  0.28  0.00
  H0022036                1.00   0.06  0.00  0.00  0.01  0.01  0.00  0.93  0.01  0.00
  H0021806                1.00   0.06  0.28  0.00  0.67  0.00  0.00  0.00  0.89  0.00
  H0022111                1.00   0.06  0.00  0.00  0.94  0.00  0.00  0.00  0.00  0.00
  H0021440                1.00   0.06  0.00  0.00  0.71  0.24  0.00  0.00  0.01  0.00
  H0021704                1.00   0.06  0.00  0.00  0.00  0.00  0.00  0.94  0.00  0.00
  H0020521                1.00   0.06  0.00  0.00  0.94  0.00  0.00  0.00  0.94  0.00
  H0020755                1.00   0.06  0.28  0.00  0.66  0.00  0.00  0.00  0.94  0.00
  H0020530                1.00   0.06  0.00  0.00  0.71  0.23  0.00  0.00  0.00  0.00
  H0020618                1.00   0.06  0.00  0.00  0.29  0.66  0.00  0.00  0.28  0.00
  H0021163                1.00   0.06  0.00  0.00  0.94  0.00  0.00  0.00  0.28  0.00
  H0020497                1.20   0.06  0.94  0.00  0.00  0.00  0.00  0.00  0.00  0.00
  H0024325                1.00   0.06  0.00  0.00  0.71  0.24  0.00  0.00  0.29  0.00
  H0023585                1.00   0.06  0.00  0.00  0.00  0.00  0.00  0.94  0.00  0.00
  H0024098                1.00   0.06  0.28  0.00  0.66  0.00  0.00  0.00  0.94  0.00
  H0024235                1.00   0.06  0.00  0.00  0.00  0.00  0.00  0.94  0.00  0.00
  H0024282                1.00   1.00  0.00  0.00  0.00  0.00  0.00  0.00  0.00  0.00
  H0024308                1.00   0.06  0.00  0.00  0.27  0.67  0.00  0.00  0.09  0.00
  H0024498                1.00   0.06  0.00  0.00  0.00  0.00  0.00  0.94  0.00  0.00
  H0026990                1.00   0.06  0.00  0.00  0.94  0.00  0.00  0.00  0.94  0.00
  H0041650                1.00   0.33  0.00  0.00  0.66  0.00  0.00  0.00  0.94  0.00
  H0041011                1.00   0.06  0.00  0.00  0.94  0.00  0.00  0.00  0.94  0.00
  H0045103                1.00   0.06  0.00  0.00  0.94  0.00  0.00  0.00  0.91  0.00
  H0045104                1.00   0.06  0.00  0.00  0.28  0.66  0.00  0.00  0.67  0.00
  H0045105                1.00   0.06  0.00  0.00  0.94  0.00  0.00  0.00  0.94  0.00
  H0045106                1.00   0.06  0.28  0.00  0.01  0.66  0.00  0.00  0.94  0.00
  H0045107                1.00   0.06  0.00  0.00  0.94  0.00  0.00  0.00  0.94  0.00
  H0045108                1.00   0.06  0.00  0.00  0.94  0.00  0.00  0.00  0.94  0.00
  
  
  *************************
  Conduit Surcharge Summary
  *************************
  
  ----------------------------------------------------------------------------
                                                           Hours        Hours 
                         --------- Hours Full --------   Above Full   Capacity
  Conduit                Both Ends  Upstream  Dnstream   Normal Flow   Limited
  ----------------------------------------------------------------------------
  H0014431                    0.05      0.06      0.05      0.08         0.05
  H0017981                    0.01      0.01      0.01      0.09         0.01
  H0018216                    0.01      0.01      0.01      0.04         0.01
  H0019507                    0.01      0.01      0.04      0.01         0.01
  H0020211                    0.01      0.01      0.01      0.06         0.01
  H0018753                    0.01      0.01      0.06      0.01         0.01
  H0018863                    0.04      0.04      0.06      0.01         0.01
  H0018440                    0.03      0.08      0.03      0.11         0.07
  H0021806                    0.01      0.01      0.01      0.01         0.01
  H0021163                    0.01      0.01      0.01      0.03         0.01
  H0024098                    0.06      0.06      0.09      0.02         0.01
  H0024498                    0.01      0.05      0.01      0.09         0.01
  H0041011                    0.01      0.01      0.06      0.01         0.01
  H0045107                    0.03      0.03      0.06      0.01         0.01
  H0045108                    0.06      0.06      0.08      0.01         0.01
  

  Analysis begun on:  Thu Mar 21 16:52:18 2024
  Analysis ended on:  Thu Mar 21 16:52:30 2024
  Total elapsed time: 00:00:12