
  EPA STORM WATER MANAGEMENT MODEL - VERSION 5.2 (Build 5.2.4)
  PYSWMM TOOLKIT API - VERSION v1.0 (2023-11-27)
  ------------------------------------------------------------

  
  ****************
  Analysis Options
  ****************
  Flow Units ............... CMS
  Process Models:
    Rainfall/Runoff ........ YES
    RDII ................... NO
    Snowmelt ............... NO
    Groundwater ............ NO
    Flow Routing ........... YES
    Ponding Allowed ........ NO
    Water Quality .......... NO
  Infiltration Method ...... HORTON
  Flow Routing Method ...... DYNWAVE
  Surcharge Method ......... SLOT
  Starting Date ............ 01/01/2024 00:00:00
  Ending Date .............. 01/08/2024 04:00:00
  Antecedent Dry Days ...... 14.0
  Report Time Step ......... 00:01:00
  Wet Time Step ............ 00:01:00
  Dry Time Step ............ 00:01:00
  Routing Time Step ........ 1.00 sec
  Variable Time Step ....... YES
  Maximum Trials ........... 8
  Number of Threads ........ 4
  Head Tolerance ........... 0.001500 m
  
  
  **************************        Volume         Depth
  Runoff Quantity Continuity     hectare-m            mm
  **************************     ---------       -------
  Total Precipitation ......         0.123        12.200
  Evaporation Loss .........         0.010         0.956
  Infiltration Loss ........         0.069         6.842
  Surface Runoff ...........         0.045         4.426
  Final Storage ............         0.000         0.000
  Continuity Error (%) .....        -0.202
  
  
  **************************        Volume        Volume
  Flow Routing Continuity        hectare-m      10^6 ltr
  **************************     ---------     ---------
  Dry Weather Inflow .......         0.000         0.000
  Wet Weather Inflow .......         0.045         0.448
  Groundwater Inflow .......         0.000         0.000
  RDII Inflow ..............         0.000         0.000
  External Inflow ..........         0.000         0.000
  External Outflow .........         0.045         0.450
  Flooding Loss ............         0.000         0.000
  Evaporation Loss .........         0.000         0.000
  Exfiltration Loss ........         0.000         0.000
  Initial Stored Volume ....         0.000         0.000
  Final Stored Volume ......         0.000         0.000
  Continuity Error (%) .....        -0.366
  
  
  *************************
  Highest Continuity Errors
  *************************
  Node R0019718 (-3.18%)
  Node R0019717 (1.22%)
  
  
  ***************************
  Time-Step Critical Elements
  ***************************
  None
  
  
  ********************************
  Highest Flow Instability Indexes
  ********************************
  All links are stable.
  
  
  *********************************
  Most Frequent Nonconverging Nodes
  *********************************
  Convergence obtained at all time steps.
  
  
  *************************
  Routing Time Step Summary
  *************************
  Minimum Time Step           :     0.50 sec
  Average Time Step           :     1.00 sec
  Maximum Time Step           :     1.00 sec
  % of Time in Steady State   :     0.00
  Average Iterations per Step :     2.00
  % of Steps Not Converging   :     0.00
  Time Step Frequencies       :
      1.000 -  0.871 sec      :   100.00 %
      0.871 -  0.758 sec      :     0.00 %
      0.758 -  0.660 sec      :     0.00 %
      0.660 -  0.574 sec      :     0.00 %
      0.574 -  0.500 sec      :     0.00 %
  
  
  ***************************
  Subcatchment Runoff Summary
  ***************************
  
  ------------------------------------------------------------------------------------------------------------------------------
                            Total      Total      Total      Total     Imperv       Perv      Total       Total     Peak  Runoff
                           Precip      Runon       Evap      Infil     Runoff     Runoff     Runoff      Runoff   Runoff   Coeff
  Subcatchment                 mm         mm         mm         mm         mm         mm         mm    10^6 ltr      CMS
  ------------------------------------------------------------------------------------------------------------------------------
  EZG_368                   12.20       0.00       0.95       6.88       5.17       0.00       4.40        0.02     0.03   0.360
  EZG_392                   12.20       0.00       0.95       6.88       5.18       0.00       4.40        0.01     0.03   0.361
  EZG_352                   12.20       0.00       0.96       6.87       5.17       0.00       4.39        0.03     0.05   0.360
  EZG_372                   12.20       0.00       0.94       6.88       5.20       0.00       4.42        0.01     0.01   0.362
  EZG_416                   12.20       0.00       0.95       6.88       5.18       0.00       4.40        0.01     0.03   0.361
  EZG_388                   12.20       0.00       0.95       6.88       5.17       0.00       4.40        0.02     0.04   0.360
  EZG_394                   12.20       0.00       0.94       6.88       5.18       0.00       4.41        0.01     0.02   0.361
  EZG_400                   12.20       0.00       0.94       6.88       5.18       0.00       4.41        0.01     0.02   0.361
  EZG_390                   12.20       0.00       0.95       6.88       5.18       0.00       4.40        0.01     0.03   0.361
  EZG_350                   12.20       0.00       0.95       6.88       5.17       0.00       4.40        0.02     0.04   0.360
  EZG_370                   12.20       0.00       0.95       6.88       5.18       0.00       4.40        0.02     0.03   0.361
  EZG_398                   12.20       0.00       0.93       6.88       5.20       0.00       4.42        0.00     0.01   0.363
  EZG_382                   12.20       0.00       0.93       6.88       5.21       0.00       4.42        0.00     0.01   0.363
  EZG_374                   12.20       0.00       1.15       5.81       6.20       0.00       5.27        0.02     0.04   0.432
  EZG_412                   12.20       0.00       0.92       6.88       5.22       0.00       4.44        0.00     0.00   0.364
  EZG_344                   12.20       0.00       0.94       6.88       5.18       0.00       4.41        0.01     0.02   0.361
  EZG_376                   12.20       0.00       0.94       6.88       5.19       0.00       4.41        0.01     0.02   0.362
  EZG_356                   12.20       0.00       0.96       6.87       5.16       0.00       4.39        0.03     0.05   0.360
  EZG_386                   12.20       0.00       0.96       6.87       5.16       0.00       4.38        0.04     0.06   0.359
  EZG_380                   12.20       0.00       0.95       6.88       5.18       0.00       4.40        0.02     0.03   0.361
  EZG_378                   12.20       0.00       0.95       6.88       5.18       0.00       4.40        0.02     0.03   0.361
  EZG_414                   12.20       0.00       0.93       6.88       5.21       0.00       4.43        0.00     0.01   0.363
  EZG_402                   12.20       0.00       0.95       6.88       5.18       0.00       4.40        0.01     0.03   0.361
  EZG_358                   12.20       0.00       0.96       6.87       5.16       0.00       4.39        0.03     0.05   0.360
  EZG_364                   12.20       0.00       0.96       6.87       5.16       0.00       4.39        0.03     0.05   0.360
  EZG_410                   12.20       0.00       0.94       6.88       5.19       0.00       4.41        0.01     0.02   0.361
  EZG_366                   12.20       0.00       0.94       6.88       5.19       0.00       4.41        0.01     0.02   0.361
  EZG_18259                 12.20       0.00       0.94       6.88       5.19       0.00       4.41        0.01     0.02   0.361
  EZG_18258                 12.20       0.00       0.93       6.88       5.21       0.00       4.43        0.00     0.01   0.363
  EZG_346                   12.20       0.00       0.93       6.98       5.07       0.00       4.31        0.02     0.03   0.354
  EZG_348                   12.20       0.00       0.92       6.98       5.08       0.00       4.32        0.01     0.02   0.354
  
  
  ******************
  Node Depth Summary
  ******************
  
  ---------------------------------------------------------------------------------
                                 Average  Maximum  Maximum  Time of Max    Reported
                                   Depth    Depth      HGL   Occurrence   Max Depth
  Node                 Type       Meters   Meters   Meters  days hr:min      Meters
  ---------------------------------------------------------------------------------
  R0019466             JUNCTION     0.00     0.26    69.71     0  02:15        0.25
  R0019468             JUNCTION     0.00     0.27    69.58     0  02:15        0.27
  R0019831             JUNCTION     0.00     0.12    69.29     0  02:15        0.12
  R0019825             JUNCTION     0.00     0.21    69.05     0  02:15        0.21
  R0019843             JUNCTION     0.00     0.31    67.94     0  02:17        0.30
  R0019368             JUNCTION     0.00     0.46    67.25     0  02:17        0.45
  R0019369             JUNCTION     0.00     0.33    66.92     0  02:17        0.33
  R0019370             JUNCTION     0.00     0.28    66.18     0  02:18        0.28
  R0019345             JUNCTION     0.00     0.22    70.12     0  02:15        0.22
  R0019346             JUNCTION     0.00     0.20    70.00     0  02:15        0.20
  R0043600             JUNCTION     0.00     0.22    69.89     0  02:16        0.22
  R0019203             JUNCTION     0.00     0.25    69.79     0  02:16        0.25
  R0043594             JUNCTION     0.00     0.18    69.91     0  02:15        0.18
  R0021458             JUNCTION     0.00     0.23    69.88     0  02:15        0.23
  R0019202             JUNCTION     0.00     0.22    69.80     0  02:16        0.22
  R0019373             JUNCTION     0.00     0.13    69.80     0  02:15        0.13
  R0019254             JUNCTION     0.00     0.22    70.26     0  02:15        0.21
  R0019716             JUNCTION     0.00     0.28    69.29     0  02:16        0.28
  R0019946             JUNCTION     0.00     0.42    69.04     0  02:16        0.42
  R0013935             JUNCTION     0.00     0.12    68.95     0  02:15        0.12
  R0019939             JUNCTION     0.00     0.20    68.77     0  02:15        0.20
  R0019944             JUNCTION     0.00     0.26    68.54     0  02:17        0.25
  R0043703             JUNCTION     0.00     0.31    68.91     0  02:17        0.31
  R0019945             JUNCTION     0.00     0.32    68.72     0  02:17        0.31
  R0039621             JUNCTION     0.00     0.09    69.66     0  02:15        0.08
  R0019838             JUNCTION     0.00     0.19    69.65     0  02:15        0.19
  R0039606             JUNCTION     0.00     0.22    69.81     0  02:16        0.21
  R0019204             JUNCTION     0.00     0.00    69.91     0  00:00        0.00
  R0019205             JUNCTION     0.00     0.00    69.62     0  00:00        0.00
  R0019849             JUNCTION     0.00     0.23    68.75     0  02:15        0.23
  R0019371             JUNCTION     0.00     0.00    70.41     0  00:00        0.00
  R0019718             JUNCTION     0.00     0.33    69.75     0  02:16        0.33
  R0021442             JUNCTION     0.00     0.32    70.37     0  02:15        0.31
  R0019247             JUNCTION     0.00     0.26    70.14     0  02:15        0.26
  R0019719             JUNCTION     0.00     0.21    69.89     0  02:16        0.21
  R0019767             JUNCTION     0.00     0.30    65.03     0  02:18        0.30
  R0019768             JUNCTION     0.00     0.26    64.03     0  02:18        0.26
  R0021453             JUNCTION     0.00     0.08    70.03     0  02:15        0.08
  R0019839             JUNCTION     0.00     0.18    69.57     0  02:15        0.17
  R0019717             JUNCTION     0.00     0.28    69.62     0  02:16        0.28
  R0019252             JUNCTION     0.00     0.16    70.35     0  02:15        0.16
  R0019721             JUNCTION     0.00     0.16    70.03     0  02:15        0.16
  R0019942             JUNCTION     0.00     0.16    68.81     0  02:15        0.15
  R0019206             JUNCTION     0.00     0.00    69.07     0  00:00        0.00
  R0019840             JUNCTION     0.00     0.16    69.13     0  02:15        0.16
  R0043702             JUNCTION     0.00     0.24    68.94     0  02:15        0.24
  R0019723             JUNCTION     0.00     0.12    70.20     0  02:15        0.12
  R0019724             JUNCTION     0.00     0.06    70.22     0  02:15        0.06
  R0021433             JUNCTION     0.00     0.15    70.54     0  02:15        0.15
  R0021435             JUNCTION     0.00     0.24    70.42     0  02:15        0.24
  R0019769             OUTFALL      0.00     0.26    63.64     0  02:18        0.25
  
  
  *******************
  Node Inflow Summary
  *******************
  
  -------------------------------------------------------------------------------------------------
                                  Maximum  Maximum                  Lateral       Total        Flow
                                  Lateral    Total  Time of Max      Inflow      Inflow     Balance
                                   Inflow   Inflow   Occurrence      Volume      Volume       Error
  Node                 Type           CMS      CMS  days hr:min    10^6 ltr    10^6 ltr     Percent
  -------------------------------------------------------------------------------------------------
  R0019466             JUNCTION     0.034    0.062     0  02:15      0.0182       0.034       0.021
  R0019468             JUNCTION     0.021    0.077     0  02:15      0.0106      0.0445      -0.000
  R0019831             JUNCTION     0.028    0.028     0  02:15      0.0143      0.0143      -0.194
  R0019825             JUNCTION     0.028    0.054     0  02:15      0.0143      0.0286      -0.028
  R0019843             JUNCTION     0.000    0.607     0  02:17           0        0.45      -0.035
  R0019368             JUNCTION     0.000    0.605     0  02:17           0        0.45      -0.007
  R0019369             JUNCTION     0.000    0.602     0  02:17           0        0.45       0.004
  R0019370             JUNCTION     0.000    0.602     0  02:17           0        0.45       0.013
  R0019345             JUNCTION     0.000    0.049     0  02:15           0       0.028       0.176
  R0019346             JUNCTION     0.004    0.080     0  02:15     0.00177      0.0468       0.081
  R0043600             JUNCTION     0.000    0.083     0  02:15           0      0.0542       0.226
  R0019203             JUNCTION     0.008    0.177     0  02:16     0.00391       0.121      -0.006
  R0043594             JUNCTION     0.046    0.068     0  02:15      0.0259       0.037      -0.531
  R0021458             JUNCTION     0.037    0.095     0  02:15      0.0202      0.0574      -0.031
  R0019202             JUNCTION     0.013    0.092     0  02:16     0.00598      0.0634      -0.044
  R0019373             JUNCTION     0.030    0.030     0  02:15      0.0158      0.0158      -0.082
  R0019254             JUNCTION     0.025    0.052     0  02:15      0.0128      0.0279      -0.079
  R0019716             JUNCTION     0.037    0.347     0  02:16        0.02       0.251      -0.069
  R0019946             JUNCTION     0.000    0.349     0  02:16           0       0.251       0.076
  R0013935             JUNCTION     0.024    0.024     0  02:15      0.0122      0.0122      -0.258
  R0019939             JUNCTION     0.009    0.033     0  02:15     0.00438      0.0166       0.021
  R0019944             JUNCTION     0.023    0.439     0  02:17      0.0114       0.321       0.006
  R0043703             JUNCTION     0.027    0.371     0  02:17      0.0139       0.265      -0.000
  R0019945             JUNCTION     0.000    0.430     0  02:17           0        0.31      -0.001
  R0039621             JUNCTION     0.000    0.004     0  02:13           0    0.000425       1.894
  R0019838             JUNCTION     0.049    0.049     0  02:15      0.0281      0.0285      -0.034
  R0039606             JUNCTION     0.000    0.089     0  02:15           0      0.0576       0.265
  R0019204             JUNCTION     0.000    0.000     0  00:00           0           0       0.000 ltr
  R0019205             JUNCTION     0.000    0.000     0  00:00           0           0       0.000 ltr
  R0019849             JUNCTION     0.000    0.079     0  02:15           0      0.0452       0.075
  R0019371             JUNCTION     0.000    0.000     0  00:00           0           0       0.000 ltr
  R0019718             JUNCTION     0.032    0.197     0  02:16      0.0171       0.138      -3.084
  R0021442             JUNCTION     0.036    0.073     0  02:15        0.02      0.0453       0.024
  R0019247             JUNCTION     0.018    0.086     0  02:15      0.0088      0.0541      -0.236
  R0019719             JUNCTION     0.019    0.093     0  02:15     0.00926       0.056      -0.050
  R0019767             JUNCTION     0.000    0.601     0  02:18           0        0.45      -0.007
  R0019768             JUNCTION     0.000    0.602     0  02:18           0        0.45       0.033
  R0021453             JUNCTION     0.022    0.022     0  02:15      0.0111      0.0111       0.405
  R0019839             JUNCTION     0.049    0.089     0  02:15      0.0278      0.0559      -0.083
  R0019717             JUNCTION     0.059    0.323     0  02:16       0.035       0.234       1.232
  R0019252             JUNCTION     0.029    0.029     0  02:15      0.0151      0.0151      -0.198
  R0019721             JUNCTION     0.008    0.034     0  02:15     0.00385      0.0171       0.070
  R0019942             JUNCTION     0.000    0.051     0  02:15           0      0.0286       0.127
  R0019206             JUNCTION     0.000    0.000     0  00:00           0           0       0.000 ltr
  R0019840             JUNCTION     0.000    0.158     0  02:15           0         0.1       0.061
  R0043702             JUNCTION     0.049    0.198     0  02:15      0.0278       0.128      -0.028
  R0019723             JUNCTION     0.021    0.027     0  02:15      0.0105      0.0132      -0.297
  R0019724             JUNCTION     0.006    0.006     0  02:15     0.00271     0.00271      -0.323
  R0021433             JUNCTION     0.030    0.030     0  02:15      0.0157      0.0157      -0.202
  R0021435             JUNCTION     0.019    0.048     0  02:15     0.00961      0.0253       0.082
  R0019769             OUTFALL      0.000    0.603     0  02:18           0        0.45       0.000
  
  
  **********************
  Node Surcharge Summary
  **********************
  
  Surcharging occurs when water rises above the top of the highest conduit.
  ---------------------------------------------------------------------
                                               Max. Height   Min. Depth
                                   Hours       Above Crown    Below Rim
  Node                 Type      Surcharged         Meters       Meters
  ---------------------------------------------------------------------
  R0021442             JUNCTION        0.03          0.018        1.732
  
  
  *********************
  Node Flooding Summary
  *********************
  
  No nodes were flooded.
  
  
  ***********************
  Outfall Loading Summary
  ***********************
  
  -----------------------------------------------------------
                         Flow       Avg       Max       Total
                         Freq      Flow      Flow      Volume
  Outfall Node           Pcnt       CMS       CMS    10^6 ltr
  -----------------------------------------------------------
  R0019769               1.77     0.041     0.603       0.450
  -----------------------------------------------------------
  System                 1.77     0.041     0.603       0.450
  
  
  ********************
  Link Flow Summary
  ********************
  
  -----------------------------------------------------------------------------
                                 Maximum  Time of Max   Maximum    Max/    Max/
                                  |Flow|   Occurrence   |Veloc|    Full    Full
  Link                 Type          CMS  days hr:min     m/sec    Flow   Depth
  -----------------------------------------------------------------------------
  H0014431             CONDUIT     0.057     0  02:15      0.89    1.06    0.89
  H0014433             CONDUIT     0.027     0  02:15      0.67    0.34    0.55
  H0014352             CONDUIT     0.605     0  02:17      2.39    0.25    0.42
  H0014373             CONDUIT     0.602     0  02:17      3.18    0.28    0.34
  H0017981             CONDUIT     0.048     0  02:15      0.99    1.35    0.65
  H0017755             CONDUIT     0.081     0  02:16      1.20    0.66    0.53
  H0017791             CONDUIT     0.060     0  02:15      0.56    0.09    0.23
  H0017357             CONDUIT     0.000     0  00:00      0.00    0.00    0.22
  H0018216             CONDUIT     0.049     0  02:15      0.88    0.89    0.73
  H0016792             CONDUIT     0.349     0  02:16      1.55    0.20    0.39
  H0019507             CONDUIT     0.023     0  02:15      0.66    0.33    0.52
  H0019998             CONDUIT     0.439     0  02:17      2.60    0.18    0.31
  H0019576             CONDUIT     0.374     0  02:17      1.90    0.25    0.35
  H0020087             CONDUIT     0.004     0  02:13      0.16    0.02    0.28
  H0020211             CONDUIT     0.358     0  02:17      1.51    0.89    0.40
  H0018982             CONDUIT     0.089     0  02:15      0.75    0.14    0.24
  H0018753             CONDUIT     0.029     0  02:15      0.59    0.41    0.66
  H0018845             CONDUIT     0.000     0  00:00      0.00    0.00    0.00
  H0018863             CONDUIT     0.029     0  02:15      0.59    0.67    0.72
  H0019156             CONDUIT     0.000     0  00:00      0.00    0.00    0.00
  H0018929             CONDUIT     0.178     0  02:16      1.01    0.15    0.32
  H0018440             CONDUIT     0.069     0  02:15      0.99    1.23    0.96
  H0018456             CONDUIT     0.080     0  02:16      1.22    0.49    0.52
  H0018968             CONDUIT     0.602     0  02:18      3.61    0.23    0.31
  H0022036             CONDUIT     0.022     0  02:15      0.54    0.02    0.13
  H0021806             CONDUIT     0.083     0  02:15      1.06    0.73    0.60
  H0022111             CONDUIT     0.043     0  02:15      0.67    0.31    0.37
  H0021440             CONDUIT     0.324     0  02:16      1.93    0.21    0.31
  H0021704             CONDUIT     0.196     0  02:17      1.11    0.37    0.32
  H0020521             CONDUIT     0.028     0  02:15      0.59    0.56    0.63
  H0020755             CONDUIT     0.030     0  02:15      0.58    0.33    0.45
  H0020530             CONDUIT     0.602     0  02:17      2.27    0.52    0.44
  H0020618             CONDUIT     0.429     0  02:17      2.47    0.27    0.32
  H0021163             CONDUIT     0.051     0  02:15      1.13    0.86    0.61
  H0020497             CONDUIT     0.000     0  00:00      0.00    0.00    0.51
  H0024325             CONDUIT     0.087     0  02:15      1.52    0.26    0.33
  H0023585             CONDUIT     0.198     0  02:15      2.17    0.45    0.47
  H0024098             CONDUIT     0.077     0  02:15      1.36    0.90    0.89
  H0024235             CONDUIT     0.092     0  02:16      1.20    0.38    0.42
  H0024282             CONDUIT     0.000     0  00:00      0.00    0.00    0.00
  H0024308             CONDUIT     0.603     0  02:18      4.04    0.18    0.28
  H0024498             CONDUIT     0.071     0  02:15      1.18    1.10    0.80
  H0026990             CONDUIT     0.026     0  02:15      0.68    0.19    0.35
  H0041650             CONDUIT     0.091     0  02:16      0.69    0.11    0.26
  H0041011             CONDUIT     0.051     0  02:15      1.06    0.51    0.65
  H0045103             CONDUIT     0.085     0  02:16      0.71    0.11    0.25
  H0045104             CONDUIT     0.601     0  02:18      3.38    0.21    0.32
  H0045105             CONDUIT     0.006     0  02:15      0.34    0.10    0.31
  H0045106             CONDUIT     0.158     0  02:15      2.19    0.21    0.40
  H0045107             CONDUIT     0.029     0  02:15      0.69    0.48    0.63
  H0045108             CONDUIT     0.040     0  02:16      0.67    0.73    0.93
  
  
  ***************************
  Flow Classification Summary
  ***************************
  
  -------------------------------------------------------------------------------------
                      Adjusted    ---------- Fraction of Time in Flow Class ---------- 
                       /Actual         Up    Down  Sub   Sup   Up    Down  Norm  Inlet 
  Conduit               Length    Dry  Dry   Dry   Crit  Crit  Crit  Crit  Ltd   Ctrl  
  -------------------------------------------------------------------------------------
  H0014431                1.00   0.01  0.00  0.00  0.99  0.00  0.00  0.00  0.99  0.00
  H0014433                1.00   0.01  0.00  0.00  0.99  0.00  0.00  0.00  0.99  0.00
  H0014352                1.00   0.01  0.00  0.00  0.98  0.01  0.00  0.00  0.99  0.00
  H0014373                1.00   0.01  0.00  0.00  0.97  0.01  0.00  0.00  0.97  0.00
  H0017981                1.00   0.01  0.00  0.00  0.00  0.00  0.00  0.99  0.00  0.00
  H0017755                1.00   0.01  0.00  0.00  0.00  0.00  0.00  0.99  0.00  0.00
  H0017791                1.00   0.01  0.00  0.00  0.99  0.00  0.00  0.00  0.99  0.00
  H0017357                1.00   0.01  0.99  0.00  0.00  0.00  0.00  0.00  0.00  0.00
  H0018216                1.00   0.01  0.97  0.00  0.02  0.00  0.00  0.00  0.99  0.00
  H0016792                1.00   0.01  0.97  0.00  0.02  0.00  0.00  0.00  0.99  0.00
  H0019507                1.00   0.01  0.00  0.00  0.99  0.00  0.00  0.00  0.99  0.00
  H0019998                1.00   0.01  0.00  0.00  0.97  0.01  0.00  0.00  0.02  0.00
  H0019576                1.00   0.01  0.00  0.00  0.98  0.01  0.00  0.00  0.02  0.00
  H0020087                1.00   0.01  0.98  0.00  0.00  0.00  0.00  0.00  0.99  0.00
  H0020211                1.00   0.01  0.00  0.00  0.99  0.00  0.00  0.00  0.96  0.00
  H0018982                1.00   0.01  0.00  0.00  0.99  0.00  0.00  0.00  0.98  0.00
  H0018753                1.00   0.01  0.00  0.00  0.99  0.00  0.00  0.00  0.99  0.00
  H0018845                1.00   1.00  0.00  0.00  0.00  0.00  0.00  0.00  0.00  0.00
  H0018863                1.00   0.01  0.00  0.00  0.99  0.00  0.00  0.00  0.99  0.00
  H0019156                1.00   1.00  0.00  0.00  0.00  0.00  0.00  0.00  0.00  0.00
  H0018929                1.00   0.01  0.97  0.00  0.02  0.00  0.00  0.00  0.99  0.00
  H0018440                1.00   0.01  0.00  0.00  0.99  0.00  0.00  0.00  0.99  0.00
  H0018456                1.00   0.01  0.00  0.00  0.99  0.00  0.00  0.00  0.99  0.00
  H0018968                1.00   0.01  0.96  0.00  0.01  0.02  0.00  0.00  0.97  0.00
  H0022036                1.00   0.01  0.00  0.00  0.00  0.00  0.00  0.98  0.00  0.00
  H0021806                1.00   0.01  0.97  0.00  0.02  0.00  0.00  0.00  0.98  0.00
  H0022111                1.00   0.01  0.00  0.00  0.99  0.00  0.00  0.00  0.00  0.00
  H0021440                1.00   0.01  0.00  0.00  0.98  0.01  0.00  0.00  0.01  0.00
  H0021704                1.00   0.01  0.00  0.00  0.00  0.00  0.00  0.99  0.00  0.00
  H0020521                1.00   0.01  0.00  0.00  0.99  0.00  0.00  0.00  0.99  0.00
  H0020755                1.00   0.01  0.97  0.00  0.02  0.00  0.00  0.00  0.99  0.00
  H0020530                1.00   0.01  0.00  0.00  0.98  0.01  0.00  0.00  0.00  0.00
  H0020618                1.00   0.01  0.00  0.00  0.98  0.01  0.00  0.00  0.97  0.00
  H0021163                1.00   0.01  0.00  0.00  0.99  0.00  0.00  0.00  0.97  0.00
  H0020497                1.20   0.01  0.99  0.00  0.00  0.00  0.00  0.00  0.00  0.00
  H0024325                1.00   0.01  0.00  0.00  0.98  0.01  0.00  0.00  0.97  0.00
  H0023585                1.00   0.01  0.00  0.00  0.00  0.00  0.00  0.99  0.00  0.00
  H0024098                1.00   0.01  0.97  0.00  0.02  0.00  0.00  0.00  0.99  0.00
  H0024235                1.00   0.01  0.00  0.00  0.00  0.00  0.00  0.99  0.00  0.00
  H0024282                1.00   1.00  0.00  0.00  0.00  0.00  0.00  0.00  0.00  0.00
  H0024308                1.00   0.01  0.00  0.00  0.97  0.02  0.00  0.00  0.00  0.00
  H0024498                1.00   0.01  0.00  0.00  0.00  0.00  0.00  0.99  0.00  0.00
  H0026990                1.00   0.01  0.00  0.00  0.99  0.00  0.00  0.00  0.99  0.00
  H0041650                1.00   0.98  0.00  0.00  0.01  0.00  0.00  0.00  0.99  0.00
  H0041011                1.00   0.01  0.00  0.00  0.99  0.00  0.00  0.00  0.99  0.00
  H0045103                1.00   0.01  0.00  0.00  0.99  0.00  0.00  0.00  0.98  0.00
  H0045104                1.00   0.01  0.00  0.00  0.97  0.02  0.00  0.00  0.02  0.00
  H0045105                1.00   0.01  0.00  0.00  0.99  0.00  0.00  0.00  0.99  0.00
  H0045106                1.00   0.01  0.97  0.00  0.01  0.01  0.00  0.00  0.99  0.00
  H0045107                1.00   0.01  0.00  0.00  0.99  0.00  0.00  0.00  0.99  0.00
  H0045108                1.00   0.01  0.00  0.00  0.99  0.00  0.00  0.00  0.99  0.00
  
  
  *************************
  Conduit Surcharge Summary
  *************************
  
  ----------------------------------------------------------------------------
                                                           Hours        Hours 
                         --------- Hours Full --------   Above Full   Capacity
  Conduit                Both Ends  Upstream  Dnstream   Normal Flow   Limited
  ----------------------------------------------------------------------------
  H0014431                    0.01      0.01      0.01      0.02         0.01
  H0017981                    0.01      0.01      0.01      0.06         0.01
  H0018440                    0.01      0.03      0.01      0.06         0.01
  H0024098                    0.01      0.01      0.03      0.01         0.01
  H0024498                    0.01      0.01      0.01      0.04         0.01
  H0045108                    0.01      0.01      0.03      0.01         0.01
  

  Analysis begun on:  Thu Mar 21 16:51:01 2024
  Analysis ended on:  Thu Mar 21 16:51:10 2024
  Total elapsed time: 00:00:09