
  EPA STORM WATER MANAGEMENT MODEL - VERSION 5.2 (Build 5.2.4)
  PYSWMM TOOLKIT API - VERSION v1.0 (2023-11-27)
  ------------------------------------------------------------

  
  ****************
  Analysis Options
  ****************
  Flow Units ............... CMS
  Process Models:
    Rainfall/Runoff ........ YES
    RDII ................... NO
    Snowmelt ............... NO
    Groundwater ............ NO
    Flow Routing ........... YES
    Ponding Allowed ........ NO
    Water Quality .......... NO
  Infiltration Method ...... HORTON
  Flow Routing Method ...... DYNWAVE
  Surcharge Method ......... SLOT
  Starting Date ............ 01/01/2024 00:00:00
  Ending Date .............. 01/08/2024 04:00:00
  Antecedent Dry Days ...... 14.0
  Report Time Step ......... 00:01:00
  Wet Time Step ............ 00:01:00
  Dry Time Step ............ 00:01:00
  Routing Time Step ........ 1.00 sec
  Variable Time Step ....... YES
  Maximum Trials ........... 8
  Number of Threads ........ 4
  Head Tolerance ........... 0.001500 m
  
  
  **************************        Volume         Depth
  Runoff Quantity Continuity     hectare-m            mm
  **************************     ---------       -------
  Total Precipitation ......         0.198        19.610
  Evaporation Loss .........         0.010         0.951
  Infiltration Loss ........         0.112        11.073
  Surface Runoff ...........         0.077         7.602
  Final Storage ............         0.000         0.000
  Continuity Error (%) .....        -0.079
  
  
  **************************        Volume        Volume
  Flow Routing Continuity        hectare-m      10^6 ltr
  **************************     ---------     ---------
  Dry Weather Inflow .......         0.000         0.000
  Wet Weather Inflow .......         0.077         0.769
  Groundwater Inflow .......         0.000         0.000
  RDII Inflow ..............         0.000         0.000
  External Inflow ..........         0.000         0.000
  External Outflow .........         0.077         0.770
  Flooding Loss ............         0.000         0.000
  Evaporation Loss .........         0.000         0.000
  Exfiltration Loss ........         0.000         0.000
  Initial Stored Volume ....         0.000         0.000
  Final Stored Volume ......         0.000         0.000
  Continuity Error (%) .....        -0.078
  
  
  ***************************
  Time-Step Critical Elements
  ***************************
  None
  
  
  ********************************
  Highest Flow Instability Indexes
  ********************************
  All links are stable.
  
  
  *********************************
  Most Frequent Nonconverging Nodes
  *********************************
  Convergence obtained at all time steps.
  
  
  *************************
  Routing Time Step Summary
  *************************
  Minimum Time Step           :     0.09 sec
  Average Time Step           :     1.00 sec
  Maximum Time Step           :     1.00 sec
  % of Time in Steady State   :     0.00
  Average Iterations per Step :     2.00
  % of Steps Not Converging   :     0.00
  Time Step Frequencies       :
      1.000 -  0.871 sec      :   100.00 %
      0.871 -  0.758 sec      :     0.00 %
      0.758 -  0.660 sec      :     0.00 %
      0.660 -  0.574 sec      :     0.00 %
      0.574 -  0.500 sec      :     0.00 %
  
  
  ***************************
  Subcatchment Runoff Summary
  ***************************
  
  ------------------------------------------------------------------------------------------------------------------------------
                            Total      Total      Total      Total     Imperv       Perv      Total       Total     Peak  Runoff
                           Precip      Runon       Evap      Infil     Runoff     Runoff     Runoff      Runoff   Runoff   Coeff
  Subcatchment                 mm         mm         mm         mm         mm         mm         mm    10^6 ltr      CMS
  ------------------------------------------------------------------------------------------------------------------------------
  EZG_368                   19.61       0.00       0.95      11.13       8.87       0.01       7.55        0.03     0.04   0.385
  EZG_392                   19.61       0.00       0.94      11.13       8.88       0.01       7.56        0.02     0.03   0.385
  EZG_352                   19.61       0.00       0.95      11.13       8.87       0.01       7.54        0.04     0.05   0.385
  EZG_372                   19.61       0.00       0.93      11.12       8.89       0.02       7.58        0.01     0.01   0.386
  EZG_416                   19.61       0.00       0.94      11.13       8.88       0.01       7.56        0.02     0.03   0.385
  EZG_388                   19.61       0.00       0.95      11.13       8.87       0.01       7.55        0.03     0.04   0.385
  EZG_394                   19.61       0.00       0.94      11.13       8.88       0.01       7.56        0.02     0.03   0.386
  EZG_400                   19.61       0.00       0.94      11.13       8.88       0.01       7.56        0.02     0.02   0.386
  EZG_390                   19.61       0.00       0.94      11.13       8.88       0.01       7.56        0.02     0.03   0.385
  EZG_350                   19.61       0.00       0.95      11.13       8.87       0.01       7.55        0.03     0.04   0.385
  EZG_370                   19.61       0.00       0.94      11.13       8.88       0.01       7.55        0.03     0.03   0.385
  EZG_398                   19.61       0.00       0.93      11.12       8.90       0.03       7.59        0.01     0.01   0.387
  EZG_382                   19.61       0.00       0.93      11.11       8.90       0.03       7.59        0.01     0.01   0.387
  EZG_374                   19.61       0.00       1.14       9.42      10.64       0.02       9.07        0.03     0.04   0.463
  EZG_412                   19.61       0.00       0.92      11.10       8.91       0.04       7.62        0.00     0.00   0.388
  EZG_344                   19.61       0.00       0.94      11.13       8.88       0.01       7.56        0.02     0.02   0.386
  EZG_376                   19.61       0.00       0.94      11.12       8.89       0.02       7.57        0.02     0.02   0.386
  EZG_356                   19.61       0.00       0.95      11.13       8.86       0.01       7.54        0.05     0.06   0.385
  EZG_386                   19.61       0.00       0.96      11.13       8.86       0.01       7.54        0.06     0.07   0.384
  EZG_380                   19.61       0.00       0.94      11.13       8.87       0.01       7.55        0.03     0.04   0.385
  EZG_378                   19.61       0.00       0.94      11.13       8.88       0.01       7.56        0.03     0.03   0.385
  EZG_414                   19.61       0.00       0.93      11.11       8.90       0.03       7.59        0.01     0.01   0.387
  EZG_402                   19.61       0.00       0.94      11.13       8.88       0.01       7.56        0.02     0.03   0.385
  EZG_358                   19.61       0.00       0.95      11.13       8.87       0.01       7.54        0.05     0.06   0.385
  EZG_364                   19.61       0.00       0.95      11.13       8.87       0.01       7.54        0.05     0.06   0.385
  EZG_410                   19.61       0.00       0.94      11.12       8.88       0.02       7.57        0.02     0.02   0.386
  EZG_366                   19.61       0.00       0.94      11.12       8.88       0.01       7.56        0.02     0.02   0.386
  EZG_18259                 19.61       0.00       0.94      11.12       8.88       0.01       7.56        0.02     0.02   0.386
  EZG_18258                 19.61       0.00       0.93      11.11       8.90       0.03       7.60        0.00     0.01   0.388
  EZG_346                   19.61       0.00       0.92      11.30       8.70       0.01       7.40        0.03     0.03   0.378
  EZG_348                   19.61       0.00       0.92      11.30       8.71       0.01       7.41        0.02     0.02   0.378
  
  
  ******************
  Node Depth Summary
  ******************
  
  ---------------------------------------------------------------------------------
                                 Average  Maximum  Maximum  Time of Max    Reported
                                   Depth    Depth      HGL   Occurrence   Max Depth
  Node                 Type       Meters   Meters   Meters  days hr:min      Meters
  ---------------------------------------------------------------------------------
  R0019466             JUNCTION     0.00     0.37    69.82     0  03:05        0.36
  R0019468             JUNCTION     0.00     0.33    69.64     0  03:05        0.31
  R0019831             JUNCTION     0.00     0.13    69.30     0  03:05        0.13
  R0019825             JUNCTION     0.00     0.23    69.07     0  03:05        0.23
  R0019843             JUNCTION     0.00     0.34    67.97     0  03:06        0.34
  R0019368             JUNCTION     0.00     0.51    67.30     0  03:06        0.51
  R0019369             JUNCTION     0.00     0.37    66.96     0  03:06        0.37
  R0019370             JUNCTION     0.00     0.32    66.22     0  03:06        0.32
  R0019345             JUNCTION     0.00     0.24    70.14     0  03:05        0.23
  R0019346             JUNCTION     0.00     0.22    70.02     0  03:05        0.21
  R0043600             JUNCTION     0.00     0.24    69.91     0  03:05        0.24
  R0019203             JUNCTION     0.00     0.28    69.82     0  03:05        0.28
  R0043594             JUNCTION     0.00     0.20    69.93     0  03:05        0.20
  R0021458             JUNCTION     0.00     0.25    69.90     0  03:05        0.24
  R0019202             JUNCTION     0.00     0.25    69.83     0  03:05        0.25
  R0019373             JUNCTION     0.00     0.16    69.83     0  03:05        0.14
  R0019254             JUNCTION     0.00     0.24    70.28     0  03:05        0.24
  R0019716             JUNCTION     0.00     0.31    69.32     0  03:05        0.31
  R0019946             JUNCTION     0.00     0.45    69.07     0  03:05        0.45
  R0013935             JUNCTION     0.00     0.12    68.95     0  03:05        0.12
  R0019939             JUNCTION     0.00     0.28    68.85     0  03:05        0.28
  R0019944             JUNCTION     0.00     0.28    68.56     0  03:06        0.28
  R0043703             JUNCTION     0.00     0.34    68.94     0  03:06        0.34
  R0019945             JUNCTION     0.00     0.35    68.75     0  03:06        0.35
  R0039621             JUNCTION     0.00     0.10    69.67     0  03:05        0.10
  R0019838             JUNCTION     0.00     0.21    69.67     0  03:05        0.21
  R0039606             JUNCTION     0.00     0.24    69.83     0  03:05        0.24
  R0019204             JUNCTION     0.00     0.00    69.91     0  00:00        0.00
  R0019205             JUNCTION     0.00     0.00    69.62     0  00:00        0.00
  R0019849             JUNCTION     0.00     0.32    68.84     0  03:06        0.31
  R0019371             JUNCTION     0.00     0.00    70.41     0  00:00        0.00
  R0019718             JUNCTION     0.00     0.35    69.77     0  03:05        0.35
  R0021442             JUNCTION     0.00     0.46    70.51     0  03:05        0.45
  R0019247             JUNCTION     0.00     0.29    70.17     0  03:05        0.27
  R0019719             JUNCTION     0.00     0.23    69.91     0  03:05        0.23
  R0019767             JUNCTION     0.00     0.34    65.07     0  03:07        0.34
  R0019768             JUNCTION     0.00     0.29    64.06     0  03:07        0.29
  R0021453             JUNCTION     0.00     0.08    70.03     0  03:05        0.08
  R0019839             JUNCTION     0.00     0.19    69.58     0  03:05        0.19
  R0019717             JUNCTION     0.00     0.31    69.65     0  03:05        0.31
  R0019252             JUNCTION     0.00     0.17    70.36     0  03:05        0.17
  R0019721             JUNCTION     0.00     0.18    70.05     0  03:05        0.18
  R0019942             JUNCTION     0.00     0.19    68.84     0  03:06        0.19
  R0019206             JUNCTION     0.00     0.00    69.07     0  00:00        0.00
  R0019840             JUNCTION     0.00     0.18    69.15     0  03:05        0.17
  R0043702             JUNCTION     0.00     0.26    68.96     0  03:05        0.26
  R0019723             JUNCTION     0.00     0.12    70.20     0  03:05        0.12
  R0019724             JUNCTION     0.00     0.07    70.23     0  03:05        0.07
  R0021433             JUNCTION     0.00     0.22    70.61     0  03:05        0.19
  R0021435             JUNCTION     0.00     0.41    70.59     0  03:05        0.39
  R0019769             OUTFALL      0.00     0.29    63.67     0  03:07        0.29
  
  
  *******************
  Node Inflow Summary
  *******************
  
  -------------------------------------------------------------------------------------------------
                                  Maximum  Maximum                  Lateral       Total        Flow
                                  Lateral    Total  Time of Max      Inflow      Inflow     Balance
                                   Inflow   Inflow   Occurrence      Volume      Volume       Error
  Node                 Type           CMS      CMS  days hr:min    10^6 ltr    10^6 ltr     Percent
  -------------------------------------------------------------------------------------------------
  R0019466             JUNCTION     0.038    0.069     0  03:04      0.0312      0.0583       0.046
  R0019468             JUNCTION     0.023    0.085     0  03:05      0.0181      0.0764      -0.020
  R0019831             JUNCTION     0.030    0.030     0  03:05      0.0245      0.0245      -0.039
  R0019825             JUNCTION     0.030    0.060     0  03:05      0.0246       0.049       0.014
  R0019843             JUNCTION     0.000    0.751     0  03:06           0        0.77      -0.010
  R0019368             JUNCTION     0.000    0.750     0  03:06           0        0.77       0.007
  R0019369             JUNCTION     0.000    0.763     0  03:06           0        0.77      -0.002
  R0019370             JUNCTION     0.000    0.748     0  03:06           0        0.77       0.005
  R0019345             JUNCTION     0.000    0.055     0  03:05           0      0.0479       0.025
  R0019346             JUNCTION     0.004    0.091     0  03:05     0.00304      0.0802       0.024
  R0043600             JUNCTION     0.000    0.095     0  03:05           0      0.0929       0.042
  R0019203             JUNCTION     0.009    0.209     0  03:05     0.00671       0.208      -0.011
  R0043594             JUNCTION     0.053    0.076     0  03:05      0.0446      0.0637      -0.060
  R0021458             JUNCTION     0.042    0.111     0  03:05      0.0347      0.0984      -0.020
  R0019202             JUNCTION     0.013    0.112     0  03:05      0.0103       0.109      -0.008
  R0019373             JUNCTION     0.033    0.033     0  03:05      0.0271      0.0271      -0.019
  R0019254             JUNCTION     0.027    0.058     0  03:05       0.022      0.0479      -0.010
  R0019716             JUNCTION     0.041    0.425     0  03:05      0.0344       0.429      -0.017
  R0019946             JUNCTION     0.000    0.425     0  03:05           0       0.429       0.007
  R0013935             JUNCTION     0.026    0.026     0  03:05       0.021       0.021      -0.061
  R0019939             JUNCTION     0.010    0.035     0  03:05     0.00751      0.0285       0.013
  R0019944             JUNCTION     0.024    0.536     0  03:06      0.0195        0.55       0.007
  R0043703             JUNCTION     0.030    0.450     0  03:06      0.0239       0.453       0.014
  R0019945             JUNCTION     0.000    0.525     0  03:06           0        0.53      -0.011
  R0039621             JUNCTION     0.000    0.003     0  03:02           0    0.000543       1.553
  R0019838             JUNCTION     0.057    0.057     0  03:05      0.0483      0.0489      -0.018
  R0039606             JUNCTION     0.000    0.105     0  03:05           0      0.0984       0.077
  R0019204             JUNCTION     0.000    0.000     0  00:00           0           0       0.000 ltr
  R0019205             JUNCTION     0.000    0.000     0  00:00           0           0       0.000 ltr
  R0019849             JUNCTION     0.000    0.083     0  03:04           0      0.0775       0.025
  R0019371             JUNCTION     0.000    0.000     0  00:00           0           0       0.000 ltr
  R0019718             JUNCTION     0.036    0.232     0  03:05      0.0294       0.238      -0.833
  R0021442             JUNCTION     0.041    0.081     0  03:05      0.0344      0.0778       0.052
  R0019247             JUNCTION     0.019    0.099     0  03:05      0.0151      0.0929      -0.046
  R0019719             JUNCTION     0.020    0.107     0  03:05      0.0159      0.0961      -0.015
  R0019767             JUNCTION     0.000    0.747     0  03:06           0        0.77      -0.008
  R0019768             JUNCTION     0.000    0.748     0  03:07           0        0.77       0.014
  R0021453             JUNCTION     0.024    0.024     0  03:05      0.0191      0.0191      -0.078
  R0019839             JUNCTION     0.056    0.108     0  03:05      0.0477      0.0961      -0.009
  R0019717             JUNCTION     0.069    0.389     0  03:05      0.0602       0.396       0.354
  R0019252             JUNCTION     0.032    0.032     0  03:05      0.0259      0.0259      -0.029
  R0019721             JUNCTION     0.009    0.036     0  03:05      0.0066      0.0293       0.026
  R0019942             JUNCTION     0.000    0.057     0  03:05           0       0.049       0.011
  R0019206             JUNCTION     0.000    0.000     0  00:00           0           0       0.000 ltr
  R0019840             JUNCTION     0.000    0.187     0  03:05           0       0.172       0.009
  R0043702             JUNCTION     0.056    0.235     0  03:05      0.0478        0.22      -0.007
  R0019723             JUNCTION     0.023    0.029     0  03:05       0.018      0.0226      -0.083
  R0019724             JUNCTION     0.006    0.006     0  03:05     0.00465     0.00465      -0.098
  R0021433             JUNCTION     0.033    0.033     0  03:05      0.0269      0.0269      -0.219
  R0021435             JUNCTION     0.021    0.052     0  03:04      0.0165      0.0435       0.048
  R0019769             OUTFALL      0.000    0.748     0  03:07           0        0.77       0.000
  
  
  **********************
  Node Surcharge Summary
  **********************
  
  Surcharging occurs when water rises above the top of the highest conduit.
  ---------------------------------------------------------------------
                                               Max. Height   Min. Depth
                                   Hours       Above Crown    Below Rim
  Node                 Type      Surcharged         Meters       Meters
  ---------------------------------------------------------------------
  R0019466             JUNCTION        0.03          0.073        2.437
  R0019468             JUNCTION        0.02          0.032        2.398
  R0019849             JUNCTION        0.03          0.020        1.910
  R0021442             JUNCTION        0.06          0.163        1.587
  R0021435             JUNCTION        0.04          0.108        1.702
  
  
  *********************
  Node Flooding Summary
  *********************
  
  No nodes were flooded.
  
  
  ***********************
  Outfall Loading Summary
  ***********************
  
  -----------------------------------------------------------
                         Flow       Avg       Max       Total
                         Freq      Flow      Flow      Volume
  Outfall Node           Pcnt       CMS       CMS    10^6 ltr
  -----------------------------------------------------------
  R0019769               2.93     0.042     0.748       0.770
  -----------------------------------------------------------
  System                 2.93     0.042     0.748       0.770
  
  
  ********************
  Link Flow Summary
  ********************
  
  -----------------------------------------------------------------------------
                                 Maximum  Time of Max   Maximum    Max/    Max/
                                  |Flow|   Occurrence   |Veloc|    Full    Full
  Link                 Type          CMS  days hr:min     m/sec    Flow   Depth
  -----------------------------------------------------------------------------
  H0014431             CONDUIT     0.063     0  03:05      0.90    1.17    1.00
  H0014433             CONDUIT     0.030     0  03:05      0.67    0.38    0.60
  H0014352             CONDUIT     0.750     0  03:06      2.53    0.31    0.48
  H0014373             CONDUIT     0.748     0  03:06      3.38    0.35    0.38
  H0017981             CONDUIT     0.054     0  03:05      1.03    1.54    0.70
  H0017755             CONDUIT     0.094     0  03:06      1.25    0.76    0.58
  H0017791             CONDUIT     0.071     0  03:05      0.57    0.10    0.25
  H0017357             CONDUIT     0.000     0  00:00      0.00    0.00    0.26
  H0018216             CONDUIT     0.055     0  03:05      0.90    1.00    0.80
  H0016792             CONDUIT     0.425     0  03:05      1.65    0.24    0.43
  H0019507             CONDUIT     0.026     0  03:05      0.65    0.36    0.65
  H0019998             CONDUIT     0.536     0  03:06      2.74    0.21    0.35
  H0019576             CONDUIT     0.452     0  03:06      1.99    0.30    0.39
  H0020087             CONDUIT     0.004     0  03:06      0.12    0.02    0.32
  H0020211             CONDUIT     0.433     0  03:06      1.61    1.08    0.44
  H0018982             CONDUIT     0.105     0  03:05      0.75    0.17    0.27
  H0018753             CONDUIT     0.032     0  03:04      0.59    0.45    0.86
  H0018845             CONDUIT     0.000     0  00:00      0.00    0.00    0.00
  H0018863             CONDUIT     0.029     0  03:04      0.56    0.68    1.00
  H0019156             CONDUIT     0.000     0  00:00      0.00    0.00    0.00
  H0018929             CONDUIT     0.210     0  03:06      1.06    0.18    0.35
  H0018440             CONDUIT     0.081     0  03:05      1.15    1.46    1.00
  H0018456             CONDUIT     0.091     0  03:05      1.26    0.55    0.56
  H0018968             CONDUIT     0.748     0  03:07      3.84    0.29    0.35
  H0022036             CONDUIT     0.024     0  03:05      0.46    0.02    0.14
  H0021806             CONDUIT     0.095     0  03:05      1.09    0.84    0.65
  H0022111             CONDUIT     0.053     0  03:05      0.71    0.38    0.41
  H0021440             CONDUIT     0.393     0  03:05      2.01    0.25    0.35
  H0021704             CONDUIT     0.233     0  03:06      1.18    0.44    0.35
  H0020521             CONDUIT     0.031     0  03:05      0.59    0.62    0.69
  H0020755             CONDUIT     0.034     0  03:05      0.55    0.37    0.49
  H0020530             CONDUIT     0.763     0  03:06      2.46    0.65    0.49
  H0020618             CONDUIT     0.524     0  03:06      2.61    0.32    0.35
  H0021163             CONDUIT     0.057     0  03:05      1.14    0.96    0.68
  H0020497             CONDUIT     0.000     0  00:00      0.00    0.00    0.57
  H0024325             CONDUIT     0.106     0  03:05      1.61    0.31    0.37
  H0023585             CONDUIT     0.235     0  03:05      2.26    0.54    0.52
  H0024098             CONDUIT     0.078     0  03:04      1.14    0.91    1.00
  H0024235             CONDUIT     0.106     0  03:05      1.24    0.43    0.45
  H0024282             CONDUIT     0.000     0  00:00      0.00    0.00    0.00
  H0024308             CONDUIT     0.748     0  03:07      4.30    0.22    0.32
  H0024498             CONDUIT     0.081     0  03:05      1.19    1.26    0.92
  H0026990             CONDUIT     0.028     0  03:05      0.66    0.21    0.38
  H0041650             CONDUIT     0.111     0  03:05      0.72    0.13    0.29
  H0041011             CONDUIT     0.055     0  03:05      1.03    0.54    0.85
  H0045103             CONDUIT     0.104     0  03:06      0.74    0.13    0.27
  H0045104             CONDUIT     0.747     0  03:06      3.60    0.26    0.36
  H0045105             CONDUIT     0.006     0  03:05      0.32    0.11    0.32
  H0045106             CONDUIT     0.187     0  03:05      2.27    0.25    0.44
  H0045107             CONDUIT     0.032     0  03:06      0.68    0.52    0.98
  H0045108             CONDUIT     0.046     0  03:06      0.66    0.83    1.00
  
  
  ***************************
  Flow Classification Summary
  ***************************
  
  -------------------------------------------------------------------------------------
                      Adjusted    ---------- Fraction of Time in Flow Class ---------- 
                       /Actual         Up    Down  Sub   Sup   Up    Down  Norm  Inlet 
  Conduit               Length    Dry  Dry   Dry   Crit  Crit  Crit  Crit  Ltd   Ctrl  
  -------------------------------------------------------------------------------------
  H0014431                1.00   0.01  0.00  0.00  0.99  0.00  0.00  0.00  0.98  0.00
  H0014433                1.00   0.01  0.00  0.00  0.99  0.00  0.00  0.00  0.99  0.00
  H0014352                1.00   0.01  0.00  0.00  0.97  0.02  0.00  0.00  0.98  0.00
  H0014373                1.00   0.01  0.00  0.00  0.96  0.03  0.00  0.00  0.95  0.00
  H0017981                1.00   0.01  0.00  0.00  0.00  0.00  0.00  0.99  0.00  0.00
  H0017755                1.00   0.01  0.00  0.00  0.00  0.00  0.00  0.99  0.00  0.00
  H0017791                1.00   0.01  0.00  0.00  0.99  0.00  0.00  0.00  0.98  0.00
  H0017357                1.00   0.01  0.99  0.00  0.00  0.00  0.00  0.00  0.00  0.00
  H0018216                1.00   0.01  0.96  0.00  0.03  0.00  0.00  0.00  0.98  0.00
  H0016792                1.00   0.01  0.95  0.00  0.03  0.00  0.00  0.00  0.98  0.00
  H0019507                1.00   0.01  0.00  0.00  0.99  0.00  0.00  0.00  0.99  0.00
  H0019998                1.00   0.01  0.00  0.00  0.96  0.03  0.00  0.00  0.03  0.00
  H0019576                1.00   0.01  0.00  0.00  0.97  0.02  0.00  0.00  0.03  0.00
  H0020087                1.00   0.01  0.98  0.00  0.01  0.00  0.00  0.00  0.98  0.00
  H0020211                1.00   0.01  0.00  0.00  0.99  0.00  0.00  0.00  0.95  0.00
  H0018982                1.00   0.01  0.00  0.00  0.99  0.00  0.00  0.00  0.96  0.00
  H0018753                1.00   0.01  0.00  0.00  0.99  0.00  0.00  0.00  0.99  0.00
  H0018845                1.00   1.00  0.00  0.00  0.00  0.00  0.00  0.00  0.00  0.00
  H0018863                1.00   0.01  0.00  0.00  0.99  0.00  0.00  0.00  0.98  0.00
  H0019156                1.00   1.00  0.00  0.00  0.00  0.00  0.00  0.00  0.00  0.00
  H0018929                1.00   0.01  0.96  0.00  0.03  0.00  0.00  0.00  0.98  0.00
  H0018440                1.00   0.01  0.00  0.00  0.99  0.00  0.00  0.00  0.98  0.00
  H0018456                1.00   0.01  0.00  0.00  0.99  0.00  0.00  0.00  0.98  0.00
  H0018968                1.00   0.01  0.00  0.00  0.96  0.03  0.00  0.00  0.96  0.00
  H0022036                1.00   0.01  0.00  0.00  0.01  0.01  0.00  0.97  0.00  0.00
  H0021806                1.00   0.01  0.96  0.00  0.03  0.00  0.00  0.00  0.97  0.00
  H0022111                1.00   0.01  0.00  0.00  0.99  0.00  0.00  0.00  0.00  0.00
  H0021440                1.00   0.01  0.00  0.00  0.97  0.02  0.00  0.00  0.01  0.00
  H0021704                1.00   0.01  0.00  0.00  0.00  0.00  0.00  0.99  0.00  0.00
  H0020521                1.00   0.01  0.00  0.00  0.99  0.00  0.00  0.00  0.99  0.00
  H0020755                1.00   0.01  0.96  0.00  0.03  0.00  0.00  0.00  0.98  0.00
  H0020530                1.00   0.01  0.00  0.00  0.97  0.02  0.00  0.00  0.00  0.00
  H0020618                1.00   0.01  0.00  0.00  0.96  0.02  0.00  0.00  0.96  0.00
  H0021163                1.00   0.01  0.00  0.00  0.98  0.00  0.00  0.00  0.96  0.00
  H0020497                1.20   0.01  0.99  0.00  0.00  0.00  0.00  0.00  0.00  0.00
  H0024325                1.00   0.01  0.00  0.00  0.97  0.02  0.00  0.00  0.96  0.00
  H0023585                1.00   0.01  0.00  0.00  0.00  0.00  0.00  0.99  0.00  0.00
  H0024098                1.00   0.01  0.96  0.00  0.03  0.00  0.00  0.00  0.98  0.00
  H0024235                1.00   0.01  0.00  0.00  0.00  0.00  0.00  0.99  0.00  0.00
  H0024282                1.00   1.00  0.00  0.00  0.00  0.00  0.00  0.00  0.00  0.00
  H0024308                1.00   0.01  0.00  0.00  0.95  0.03  0.00  0.00  0.01  0.00
  H0024498                1.00   0.01  0.00  0.00  0.00  0.00  0.00  0.99  0.00  0.00
  H0026990                1.00   0.01  0.00  0.00  0.99  0.00  0.00  0.00  0.99  0.00
  H0041650                1.00   0.97  0.00  0.00  0.03  0.00  0.00  0.00  0.98  0.00
  H0041011                1.00   0.01  0.00  0.00  0.99  0.00  0.00  0.00  0.98  0.00
  H0045103                1.00   0.01  0.00  0.00  0.99  0.00  0.00  0.00  0.97  0.00
  H0045104                1.00   0.01  0.00  0.00  0.96  0.03  0.00  0.00  0.03  0.00
  H0045105                1.00   0.01  0.00  0.00  0.99  0.00  0.00  0.00  0.99  0.00
  H0045106                1.00   0.01  0.96  0.00  0.01  0.02  0.00  0.00  0.99  0.00
  H0045107                1.00   0.01  0.00  0.00  0.99  0.00  0.00  0.00  0.98  0.00
  H0045108                1.00   0.01  0.00  0.00  0.99  0.00  0.00  0.00  0.99  0.00
  
  
  *************************
  Conduit Surcharge Summary
  *************************
  
  ----------------------------------------------------------------------------
                                                           Hours        Hours 
                         --------- Hours Full --------   Above Full   Capacity
  Conduit                Both Ends  Upstream  Dnstream   Normal Flow   Limited
  ----------------------------------------------------------------------------
  H0014431                    0.02      0.03      0.02      0.06         0.03
  H0017981                    0.01      0.01      0.01      0.08         0.01
  H0018216                    0.01      0.01      0.01      0.01         0.01
  H0020211                    0.01      0.01      0.01      0.03         0.01
  H0018753                    0.01      0.01      0.03      0.01         0.01
  H0018863                    0.01      0.01      0.03      0.01         0.01
  H0018440                    0.01      0.06      0.01      0.09         0.04
  H0024098                    0.03      0.03      0.07      0.01         0.01
  H0024498                    0.01      0.02      0.01      0.07         0.01
  H0041011                    0.01      0.01      0.03      0.01         0.01
  H0045107                    0.01      0.01      0.04      0.01         0.01
  H0045108                    0.04      0.04      0.06      0.01         0.01
  

  Analysis begun on:  Thu Mar 21 16:50:23 2024
  Analysis ended on:  Thu Mar 21 16:50:32 2024
  Total elapsed time: 00:00:09