
  EPA STORM WATER MANAGEMENT MODEL - VERSION 5.2 (Build 5.2.4)
  PYSWMM TOOLKIT API - VERSION v1.0 (2023-11-27)
  ------------------------------------------------------------

  
  ****************
  Analysis Options
  ****************
  Flow Units ............... CMS
  Process Models:
    Rainfall/Runoff ........ YES
    RDII ................... NO
    Snowmelt ............... NO
    Groundwater ............ NO
    Flow Routing ........... YES
    Ponding Allowed ........ NO
    Water Quality .......... NO
  Infiltration Method ...... HORTON
  Flow Routing Method ...... DYNWAVE
  Surcharge Method ......... SLOT
  Starting Date ............ 01/01/2024 00:00:00
  Ending Date .............. 01/08/2024 04:00:00
  Antecedent Dry Days ...... 14.0
  Report Time Step ......... 00:01:00
  Wet Time Step ............ 00:01:00
  Dry Time Step ............ 00:01:00
  Routing Time Step ........ 1.00 sec
  Variable Time Step ....... YES
  Maximum Trials ........... 8
  Number of Threads ........ 4
  Head Tolerance ........... 0.001500 m
  
  
  **************************        Volume         Depth
  Runoff Quantity Continuity     hectare-m            mm
  **************************     ---------       -------
  Total Precipitation ......         0.507        50.090
  Evaporation Loss .........         0.008         0.815
  Infiltration Loss ........         0.280        27.701
  Surface Runoff ...........         0.217        21.476
  Final Storage ............         0.001         0.118
  Continuity Error (%) .....        -0.040
  
  
  **************************        Volume        Volume
  Flow Routing Continuity        hectare-m      10^6 ltr
  **************************     ---------     ---------
  Dry Weather Inflow .......         0.000         0.000
  Wet Weather Inflow .......         0.217         2.174
  Groundwater Inflow .......         0.000         0.000
  RDII Inflow ..............         0.000         0.000
  External Inflow ..........         0.000         0.000
  External Outflow .........         0.217         2.175
  Flooding Loss ............         0.000         0.000
  Evaporation Loss .........         0.000         0.000
  Exfiltration Loss ........         0.000         0.000
  Initial Stored Volume ....         0.000         0.000
  Final Stored Volume ......         0.000         0.000
  Continuity Error (%) .....        -0.032
  
  
  ***************************
  Time-Step Critical Elements
  ***************************
  None
  
  
  ********************************
  Highest Flow Instability Indexes
  ********************************
  All links are stable.
  
  
  *********************************
  Most Frequent Nonconverging Nodes
  *********************************
  Convergence obtained at all time steps.
  
  
  *************************
  Routing Time Step Summary
  *************************
  Minimum Time Step           :     0.57 sec
  Average Time Step           :     1.00 sec
  Maximum Time Step           :     1.00 sec
  % of Time in Steady State   :     0.00
  Average Iterations per Step :     2.00
  % of Steps Not Converging   :     0.00
  Time Step Frequencies       :
      1.000 -  0.871 sec      :   100.00 %
      0.871 -  0.758 sec      :     0.00 %
      0.758 -  0.660 sec      :     0.00 %
      0.660 -  0.574 sec      :     0.00 %
      0.574 -  0.500 sec      :     0.00 %
  
  
  ***************************
  Subcatchment Runoff Summary
  ***************************
  
  ------------------------------------------------------------------------------------------------------------------------------
                            Total      Total      Total      Total     Imperv       Perv      Total       Total     Peak  Runoff
                           Precip      Runon       Evap      Infil     Runoff     Runoff     Runoff      Runoff   Runoff   Coeff
  Subcatchment                 mm         mm         mm         mm         mm         mm         mm    10^6 ltr      CMS
  ------------------------------------------------------------------------------------------------------------------------------
  EZG_368                   50.09       0.00       0.81      27.86      24.13       0.81      21.32        0.09     0.04   0.426
  EZG_392                   50.09       0.00       0.81      27.80      24.13       0.87      21.39        0.07     0.04   0.427
  EZG_352                   50.09       0.00       0.81      27.95      24.13       0.72      21.23        0.13     0.06   0.424
  EZG_372                   50.09       0.00       0.81      27.57      24.14       1.10      21.62        0.03     0.02   0.432
  EZG_416                   50.09       0.00       0.81      27.77      24.14       0.90      21.41        0.06     0.03   0.428
  EZG_388                   50.09       0.00       0.81      27.88      24.13       0.78      21.30        0.10     0.05   0.425
  EZG_394                   50.09       0.00       0.81      27.76      24.14       0.91      21.43        0.06     0.03   0.428
  EZG_400                   50.09       0.00       0.81      27.74      24.14       0.93      21.45        0.06     0.03   0.428
  EZG_390                   50.09       0.00       0.81      27.79      24.13       0.88      21.39        0.07     0.04   0.427
  EZG_350                   50.09       0.00       0.81      27.89      24.13       0.78      21.29        0.10     0.05   0.425
  EZG_370                   50.09       0.00       0.81      27.83      24.13       0.85      21.36        0.08     0.04   0.426
  EZG_398                   50.09       0.00       0.81      27.49      24.15       1.19      21.71        0.02     0.01   0.433
  EZG_382                   50.09       0.00       0.81      27.46      24.15       1.22      21.74        0.02     0.01   0.434
  EZG_374                   50.09       0.00       0.97      23.43      28.95       0.96      25.57        0.10     0.05   0.510
  EZG_412                   50.09       0.00       0.81      27.26      24.16       1.43      21.96        0.01     0.01   0.438
  EZG_344                   50.09       0.00       0.81      27.74      24.14       0.94      21.45        0.05     0.03   0.428
  EZG_376                   50.09       0.00       0.81      27.68      24.14       1.00      21.52        0.04     0.02   0.430
  EZG_356                   50.09       0.00       0.81      27.97      24.13       0.70      21.21        0.14     0.07   0.423
  EZG_386                   50.09       0.00       0.81      28.02      24.12       0.65      21.16        0.17     0.08   0.422
  EZG_380                   50.09       0.00       0.81      27.85      24.13       0.82      21.34        0.08     0.04   0.426
  EZG_378                   50.09       0.00       0.81      27.81      24.13       0.86      21.37        0.07     0.04   0.427
  EZG_414                   50.09       0.00       0.81      27.46      24.15       1.22      21.75        0.02     0.01   0.434
  EZG_402                   50.09       0.00       0.81      27.80      24.13       0.87      21.38        0.07     0.04   0.427
  EZG_358                   50.09       0.00       0.81      27.96      24.13       0.70      21.21        0.13     0.06   0.423
  EZG_364                   50.09       0.00       0.81      27.96      24.13       0.70      21.21        0.13     0.06   0.423
  EZG_410                   50.09       0.00       0.81      27.69      24.14       0.98      21.50        0.05     0.02   0.429
  EZG_366                   50.09       0.00       0.81      27.72      24.14       0.95      21.47        0.05     0.03   0.429
  EZG_18259                 50.09       0.00       0.81      27.72      24.14       0.95      21.47        0.05     0.03   0.429
  EZG_18258                 50.09       0.00       0.81      27.37      24.15       1.32      21.85        0.01     0.01   0.436
  EZG_346                   50.09       0.00       0.79      28.27      23.65       0.83      20.93        0.08     0.04   0.418
  EZG_348                   50.09       0.00       0.79      28.14      23.66       0.96      21.07        0.05     0.03   0.421
  
  
  ******************
  Node Depth Summary
  ******************
  
  ---------------------------------------------------------------------------------
                                 Average  Maximum  Maximum  Time of Max    Reported
                                   Depth    Depth      HGL   Occurrence   Max Depth
  Node                 Type       Meters   Meters   Meters  days hr:min      Meters
  ---------------------------------------------------------------------------------
  R0019466             JUNCTION     0.01     0.42    69.87     2  02:05        0.40
  R0019468             JUNCTION     0.01     0.41    69.72     2  02:05        0.40
  R0019831             JUNCTION     0.01     0.14    69.31     2  02:05        0.14
  R0019825             JUNCTION     0.01     0.27    69.11     2  02:05        0.26
  R0019843             JUNCTION     0.02     0.37    68.00     2  02:06        0.36
  R0019368             JUNCTION     0.03     0.55    67.34     2  02:06        0.55
  R0019369             JUNCTION     0.02     0.40    66.99     2  02:07        0.40
  R0019370             JUNCTION     0.02     0.34    66.24     2  02:07        0.34
  R0019345             JUNCTION     0.02     0.26    70.16     2  02:05        0.26
  R0019346             JUNCTION     0.01     0.24    70.04     2  02:05        0.24
  R0043600             JUNCTION     0.01     0.27    69.94     2  02:06        0.27
  R0019203             JUNCTION     0.01     0.31    69.85     2  02:06        0.31
  R0043594             JUNCTION     0.01     0.22    69.95     2  02:05        0.22
  R0021458             JUNCTION     0.01     0.27    69.92     2  02:05        0.26
  R0019202             JUNCTION     0.01     0.28    69.86     2  02:06        0.28
  R0019373             JUNCTION     0.01     0.23    69.90     2  02:05        0.22
  R0019254             JUNCTION     0.01     0.29    70.33     2  02:05        0.28
  R0019716             JUNCTION     0.02     0.34    69.35     2  02:06        0.34
  R0019946             JUNCTION     0.04     0.48    69.10     2  02:06        0.48
  R0013935             JUNCTION     0.01     0.14    68.97     2  02:05        0.14
  R0019939             JUNCTION     0.01     0.35    68.92     2  02:05        0.34
  R0019944             JUNCTION     0.02     0.30    68.58     2  02:06        0.30
  R0043703             JUNCTION     0.02     0.37    68.97     2  02:06        0.37
  R0019945             JUNCTION     0.02     0.38    68.78     2  02:06        0.38
  R0039621             JUNCTION     0.00     0.12    69.69     2  02:05        0.11
  R0019838             JUNCTION     0.01     0.23    69.69     2  02:05        0.22
  R0039606             JUNCTION     0.01     0.27    69.86     2  02:06        0.27
  R0019204             JUNCTION     0.00     0.00    69.91     0  00:00        0.00
  R0019205             JUNCTION     0.00     0.00    69.62     0  00:00        0.00
  R0019849             JUNCTION     0.01     0.38    68.90     2  02:05        0.38
  R0019371             JUNCTION     0.00     0.00    70.41     0  00:00        0.00
  R0019718             JUNCTION     0.03     0.38    69.80     2  02:06        0.38
  R0021442             JUNCTION     0.01     0.68    70.73     2  02:05        0.58
  R0019247             JUNCTION     0.01     0.33    70.21     2  02:05        0.33
  R0019719             JUNCTION     0.01     0.25    69.93     2  02:05        0.25
  R0019767             JUNCTION     0.02     0.36    65.09     2  02:07        0.36
  R0019768             JUNCTION     0.02     0.31    64.08     2  02:07        0.31
  R0021453             JUNCTION     0.00     0.09    70.04     2  02:05        0.09
  R0019839             JUNCTION     0.01     0.21    69.60     2  02:05        0.21
  R0019717             JUNCTION     0.02     0.33    69.67     2  02:05        0.33
  R0019252             JUNCTION     0.01     0.20    70.39     2  02:05        0.19
  R0019721             JUNCTION     0.01     0.20    70.07     2  02:05        0.20
  R0019942             JUNCTION     0.01     0.30    68.95     2  02:05        0.30
  R0019206             JUNCTION     0.00     0.00    69.07     0  00:00        0.00
  R0019840             JUNCTION     0.01     0.19    69.16     2  02:05        0.18
  R0043702             JUNCTION     0.01     0.28    68.98     2  02:05        0.28
  R0019723             JUNCTION     0.01     0.14    70.22     2  02:05        0.14
  R0019724             JUNCTION     0.00     0.08    70.24     2  02:05        0.08
  R0021433             JUNCTION     0.01     0.50    70.89     2  02:05        0.47
  R0021435             JUNCTION     0.01     0.67    70.85     2  02:05        0.57
  R0019769             OUTFALL      0.01     0.31    63.69     2  02:07        0.31
  
  
  *******************
  Node Inflow Summary
  *******************
  
  -------------------------------------------------------------------------------------------------
                                  Maximum  Maximum                  Lateral       Total        Flow
                                  Lateral    Total  Time of Max      Inflow      Inflow     Balance
                                   Inflow   Inflow   Occurrence      Volume      Volume       Error
  Node                 Type           CMS      CMS  days hr:min    10^6 ltr    10^6 ltr     Percent
  -------------------------------------------------------------------------------------------------
  R0019466             JUNCTION     0.045    0.075     2  02:04      0.0881       0.164       0.053
  R0019468             JUNCTION     0.028    0.093     2  02:04      0.0514       0.216      -0.015
  R0019831             JUNCTION     0.036    0.036     2  02:05      0.0692      0.0692      -0.005
  R0019825             JUNCTION     0.036    0.072     2  02:05      0.0695       0.139       0.051
  R0019843             JUNCTION     0.000    0.852     2  02:06           0        2.17      -0.002
  R0019368             JUNCTION     0.000    0.851     2  02:06           0        2.17       0.004
  R0019369             JUNCTION     0.000    0.877     2  02:06           0        2.17      -0.003
  R0019370             JUNCTION     0.000    0.855     2  02:07           0        2.17       0.002
  R0019345             JUNCTION     0.000    0.063     2  02:05           0       0.136      -0.005
  R0019346             JUNCTION     0.006    0.108     2  02:05     0.00876       0.228       0.006
  R0043600             JUNCTION     0.000    0.114     2  02:05           0       0.263       0.002
  R0019203             JUNCTION     0.012    0.248     2  02:06      0.0192       0.589      -0.002
  R0043594             JUNCTION     0.061    0.089     2  02:05       0.125        0.18      -0.021
  R0021458             JUNCTION     0.049    0.128     2  02:05      0.0978       0.277      -0.005
  R0019202             JUNCTION     0.017    0.130     2  02:05      0.0293       0.307      -0.016
  R0019373             JUNCTION     0.040    0.040     2  02:05      0.0766      0.0766      -0.049
  R0019254             JUNCTION     0.033    0.068     2  02:05      0.0624       0.136       0.005
  R0019716             JUNCTION     0.049    0.484     2  02:06      0.0971        1.21      -0.004
  R0019946             JUNCTION     0.000    0.483     2  02:06           0        1.21      -0.002
  R0013935             JUNCTION     0.032    0.032     2  02:05      0.0594      0.0594       0.015
  R0019939             JUNCTION     0.013    0.044     2  02:05      0.0215      0.0809      -0.013
  R0019944             JUNCTION     0.030    0.616     2  02:06      0.0552        1.55       0.004
  R0043703             JUNCTION     0.036    0.512     2  02:06      0.0677        1.28       0.006
  R0019945             JUNCTION     0.000    0.601     2  02:06           0         1.5      -0.005
  R0039621             JUNCTION     0.000    0.003     2  02:02           0    0.000654       1.424
  R0019838             JUNCTION     0.065    0.065     2  02:05       0.136       0.137      -0.007
  R0039606             JUNCTION     0.000    0.120     2  02:05           0       0.278       0.020
  R0019204             JUNCTION     0.000    0.000     0  00:00           0           0       0.000 ltr
  R0019205             JUNCTION     0.000    0.000     0  00:00           0           0       0.000 ltr
  R0019849             JUNCTION     0.000    0.093     2  02:05           0        0.22       0.010
  R0019371             JUNCTION     0.000    0.000     0  00:00           0           0       0.000 ltr
  R0019718             JUNCTION     0.043    0.276     2  02:06      0.0831       0.672      -0.406
  R0021442             JUNCTION     0.048    0.101     2  02:05      0.0969        0.22       0.026
  R0019247             JUNCTION     0.024    0.118     2  02:05      0.0429       0.263      -0.010
  R0019719             JUNCTION     0.025    0.126     2  02:05      0.0452       0.273      -0.005
  R0019767             JUNCTION     0.000    0.853     2  02:07           0        2.17      -0.003
  R0019768             JUNCTION     0.000    0.853     2  02:07           0        2.17       0.005
  R0021453             JUNCTION     0.029    0.029     2  02:05      0.0543      0.0543      -0.029
  R0019839             JUNCTION     0.065    0.123     2  02:05       0.134        0.27      -0.001
  R0019717             JUNCTION     0.079    0.450     2  02:06       0.169        1.12       0.188
  R0019252             JUNCTION     0.038    0.038     2  02:05      0.0732      0.0732       0.002
  R0019721             JUNCTION     0.012    0.046     2  02:05      0.0189      0.0833       0.012
  R0019942             JUNCTION     0.000    0.067     2  02:05           0       0.139      -0.046
  R0019206             JUNCTION     0.000    0.000     0  00:00           0           0       0.000 ltr
  R0019840             JUNCTION     0.000    0.205     2  02:05           0       0.486       0.002
  R0043702             JUNCTION     0.065    0.263     2  02:05       0.134        0.62      -0.002
  R0019723             JUNCTION     0.028    0.036     2  02:05       0.051      0.0644      -0.026
  R0019724             JUNCTION     0.009    0.009     2  02:05      0.0134      0.0134      -0.031
  R0021433             JUNCTION     0.040    0.040     2  02:05      0.0762      0.0762      -0.115
  R0021435             JUNCTION     0.026    0.061     2  02:05      0.0469       0.123       0.024
  R0019769             OUTFALL      0.000    0.853     2  02:07           0        2.17       0.000
  
  
  **********************
  Node Surcharge Summary
  **********************
  
  Surcharging occurs when water rises above the top of the highest conduit.
  ---------------------------------------------------------------------
                                               Max. Height   Min. Depth
                                   Hours       Above Crown    Below Rim
  Node                 Type      Surcharged         Meters       Meters
  ---------------------------------------------------------------------
  R0019466             JUNCTION        0.06          0.124        2.386
  R0019468             JUNCTION        0.05          0.107        2.323
  R0019939             JUNCTION        0.04          0.051        1.569
  R0019849             JUNCTION        0.06          0.081        1.849
  R0021442             JUNCTION        0.08          0.382        1.368
  R0021433             JUNCTION        0.03          0.205        1.645
  R0021435             JUNCTION        0.06          0.370        1.440
  
  
  *********************
  Node Flooding Summary
  *********************
  
  No nodes were flooded.
  
  
  ***********************
  Outfall Loading Summary
  ***********************
  
  -----------------------------------------------------------
                         Flow       Avg       Max       Total
                         Freq      Flow      Flow      Volume
  Outfall Node           Pcnt       CMS       CMS    10^6 ltr
  -----------------------------------------------------------
  R0019769              80.33     0.004     0.853       2.175
  -----------------------------------------------------------
  System                80.33     0.004     0.853       2.175
  
  
  ********************
  Link Flow Summary
  ********************
  
  -----------------------------------------------------------------------------
                                 Maximum  Time of Max   Maximum    Max/    Max/
                                  |Flow|   Occurrence   |Veloc|    Full    Full
  Link                 Type          CMS  days hr:min     m/sec    Flow   Depth
  -----------------------------------------------------------------------------
  H0014431             CONDUIT     0.066     2  02:04      0.94    1.23    1.00
  H0014433             CONDUIT     0.035     2  02:05      0.69    0.45    0.68
  H0014352             CONDUIT     0.851     2  02:06      2.62    0.35    0.51
  H0014373             CONDUIT     0.855     2  02:07      3.51    0.39    0.41
  H0017981             CONDUIT     0.062     2  02:05      1.09    1.77    0.76
  H0017755             CONDUIT     0.113     2  02:06      1.33    0.91    0.64
  H0017791             CONDUIT     0.082     2  02:05      0.59    0.12    0.27
  H0017357             CONDUIT     0.006     2  02:05      0.17    0.09    0.47
  H0018216             CONDUIT     0.063     2  02:05      0.94    1.15    0.91
  H0016792             CONDUIT     0.483     2  02:06      1.72    0.28    0.46
  H0019507             CONDUIT     0.031     2  02:05      0.65    0.43    0.81
  H0019998             CONDUIT     0.615     2  02:06      2.85    0.25    0.37
  H0019576             CONDUIT     0.515     2  02:06      2.06    0.35    0.42
  H0020087             CONDUIT     0.005     2  02:06      0.12    0.02    0.35
  H0020211             CONDUIT     0.492     2  02:06      1.68    1.22    0.47
  H0018982             CONDUIT     0.120     2  02:05      0.77    0.19    0.30
  H0018753             CONDUIT     0.035     2  02:06      0.60    0.50    1.00
  H0018845             CONDUIT     0.000     0  00:00      0.00    0.00    0.00
  H0018863             CONDUIT     0.040     2  02:05      0.57    0.94    1.00
  H0019156             CONDUIT     0.000     0  00:00      0.00    0.00    0.00
  H0018929             CONDUIT     0.250     2  02:06      1.12    0.22    0.38
  H0018440             CONDUIT     0.099     2  02:05      1.40    1.77    1.00
  H0018456             CONDUIT     0.108     2  02:05      1.32    0.65    0.62
  H0018968             CONDUIT     0.853     2  02:07      3.99    0.33    0.37
  H0022036             CONDUIT     0.029     2  02:05      0.46    0.02    0.16
  H0021806             CONDUIT     0.114     2  02:05      1.14    1.01    0.74
  H0022111             CONDUIT     0.059     2  02:05      0.73    0.42    0.44
  H0021440             CONDUIT     0.452     2  02:06      2.09    0.29    0.37
  H0021704             CONDUIT     0.276     2  02:06      1.24    0.53    0.38
  H0020521             CONDUIT     0.035     2  02:05      0.61    0.71    0.80
  H0020755             CONDUIT     0.041     2  02:05      0.57    0.45    0.56
  H0020530             CONDUIT     0.877     2  02:06      2.58    0.75    0.53
  H0020618             CONDUIT     0.600     2  02:06      2.70    0.37    0.38
  H0021163             CONDUIT     0.067     2  02:05      1.15    1.13    0.93
  H0020497             CONDUIT     0.000     0  00:00      0.00    0.00    0.61
  H0024325             CONDUIT     0.120     2  02:05      1.67    0.36    0.39
  H0023585             CONDUIT     0.263     2  02:05      2.32    0.60    0.56
  H0024098             CONDUIT     0.093     2  02:05      1.31    1.08    1.00
  H0024235             CONDUIT     0.125     2  02:06      1.31    0.51    0.49
  H0024282             CONDUIT     0.000     0  00:00      0.00    0.00    0.00
  H0024308             CONDUIT     0.853     2  02:07      4.46    0.25    0.34
  H0024498             CONDUIT     0.086     2  02:05      1.21    1.33    1.00
  H0026990             CONDUIT     0.034     2  02:05      0.68    0.26    0.43
  H0041650             CONDUIT     0.129     2  02:06      0.73    0.15    0.32
  H0041011             CONDUIT     0.062     2  02:06      1.03    0.62    1.00
  H0045103             CONDUIT     0.115     2  02:06      0.72    0.14    0.30
  H0045104             CONDUIT     0.853     2  02:07      3.73    0.30    0.39
  H0045105             CONDUIT     0.008     2  02:05      0.36    0.14    0.36
  H0045106             CONDUIT     0.206     2  02:05      2.29    0.28    0.47
  H0045107             CONDUIT     0.037     2  02:05      0.69    0.61    1.00
  H0045108             CONDUIT     0.057     2  02:05      0.80    1.02    1.00
  
  
  ***************************
  Flow Classification Summary
  ***************************
  
  -------------------------------------------------------------------------------------
                      Adjusted    ---------- Fraction of Time in Flow Class ---------- 
                       /Actual         Up    Down  Sub   Sup   Up    Down  Norm  Inlet 
  Conduit               Length    Dry  Dry   Dry   Crit  Crit  Crit  Crit  Ltd   Ctrl  
  -------------------------------------------------------------------------------------
  H0014431                1.00   0.06  0.14  0.00  0.80  0.00  0.00  0.00  0.94  0.00
  H0014433                1.00   0.06  0.00  0.00  0.94  0.00  0.00  0.00  0.94  0.00
  H0014352                1.00   0.06  0.00  0.00  0.15  0.79  0.00  0.00  0.94  0.00
  H0014373                1.00   0.06  0.00  0.00  0.14  0.80  0.00  0.00  0.14  0.00
  H0017981                1.00   0.06  0.00  0.00  0.00  0.00  0.00  0.94  0.00  0.00
  H0017755                1.00   0.06  0.00  0.00  0.00  0.00  0.00  0.94  0.00  0.00
  H0017791                1.00   0.06  0.00  0.00  0.94  0.00  0.00  0.00  0.94  0.00
  H0017357                1.00   0.06  0.94  0.00  0.00  0.00  0.00  0.00  0.71  0.00
  H0018216                1.00   0.06  0.14  0.00  0.80  0.00  0.00  0.00  0.94  0.00
  H0016792                1.00   0.06  0.14  0.00  0.81  0.00  0.00  0.00  0.94  0.00
  H0019507                1.00   0.06  0.00  0.00  0.94  0.00  0.00  0.00  0.94  0.00
  H0019998                1.00   0.06  0.00  0.00  0.15  0.80  0.00  0.00  0.81  0.00
  H0019576                1.00   0.06  0.00  0.00  0.87  0.07  0.00  0.00  0.80  0.00
  H0020087                1.00   0.06  0.94  0.00  0.00  0.00  0.00  0.00  0.71  0.00
  H0020211                1.00   0.06  0.00  0.00  0.94  0.00  0.00  0.00  0.13  0.00
  H0018982                1.00   0.06  0.00  0.00  0.94  0.00  0.00  0.00  0.15  0.00
  H0018753                1.00   0.06  0.00  0.00  0.94  0.00  0.00  0.00  0.94  0.00
  H0018845                1.00   1.00  0.00  0.00  0.00  0.00  0.00  0.00  0.00  0.00
  H0018863                1.00   0.06  0.00  0.00  0.94  0.00  0.00  0.00  0.94  0.00
  H0019156                1.00   1.00  0.00  0.00  0.00  0.00  0.00  0.00  0.00  0.00
  H0018929                1.00   0.06  0.14  0.00  0.81  0.00  0.00  0.00  0.94  0.00
  H0018440                1.00   0.06  0.00  0.00  0.94  0.00  0.00  0.00  0.94  0.00
  H0018456                1.00   0.06  0.00  0.00  0.94  0.00  0.00  0.00  0.94  0.00
  H0018968                1.00   0.06  0.00  0.00  0.14  0.80  0.00  0.00  0.14  0.00
  H0022036                1.00   0.06  0.00  0.00  0.01  0.01  0.00  0.93  0.01  0.00
  H0021806                1.00   0.06  0.14  0.00  0.80  0.00  0.00  0.00  0.89  0.00
  H0022111                1.00   0.06  0.00  0.00  0.94  0.00  0.00  0.00  0.00  0.00
  H0021440                1.00   0.06  0.00  0.00  0.70  0.24  0.00  0.00  0.01  0.00
  H0021704                1.00   0.06  0.00  0.00  0.00  0.00  0.00  0.94  0.00  0.00
  H0020521                1.00   0.06  0.00  0.00  0.94  0.00  0.00  0.00  0.94  0.00
  H0020755                1.00   0.06  0.14  0.00  0.80  0.00  0.00  0.00  0.94  0.00
  H0020530                1.00   0.06  0.00  0.00  0.71  0.23  0.00  0.00  0.00  0.00
  H0020618                1.00   0.06  0.00  0.00  0.15  0.80  0.00  0.00  0.14  0.00
  H0021163                1.00   0.06  0.00  0.00  0.94  0.00  0.00  0.00  0.14  0.00
  H0020497                1.20   0.06  0.94  0.00  0.00  0.00  0.00  0.00  0.00  0.00
  H0024325                1.00   0.06  0.00  0.00  0.70  0.24  0.00  0.00  0.15  0.00
  H0023585                1.00   0.06  0.00  0.00  0.00  0.00  0.00  0.94  0.00  0.00
  H0024098                1.00   0.06  0.14  0.00  0.80  0.00  0.00  0.00  0.94  0.00
  H0024235                1.00   0.06  0.00  0.00  0.00  0.00  0.00  0.94  0.00  0.00
  H0024282                1.00   1.00  0.00  0.00  0.00  0.00  0.00  0.00  0.00  0.00
  H0024308                1.00   0.06  0.00  0.00  0.14  0.81  0.00  0.00  0.08  0.00
  H0024498                1.00   0.06  0.00  0.00  0.00  0.00  0.00  0.94  0.00  0.00
  H0026990                1.00   0.06  0.00  0.00  0.94  0.00  0.00  0.00  0.94  0.00
  H0041650                1.00   0.19  0.00  0.00  0.80  0.00  0.00  0.00  0.94  0.00
  H0041011                1.00   0.06  0.00  0.00  0.94  0.00  0.00  0.00  0.94  0.00
  H0045103                1.00   0.06  0.00  0.00  0.94  0.00  0.00  0.00  0.90  0.00
  H0045104                1.00   0.06  0.00  0.00  0.14  0.80  0.00  0.00  0.81  0.00
  H0045105                1.00   0.06  0.00  0.00  0.94  0.00  0.00  0.00  0.94  0.00
  H0045106                1.00   0.06  0.14  0.00  0.01  0.79  0.00  0.00  0.94  0.00
  H0045107                1.00   0.06  0.00  0.00  0.94  0.00  0.00  0.00  0.94  0.00
  H0045108                1.00   0.06  0.00  0.00  0.94  0.00  0.00  0.00  0.94  0.00
  
  
  *************************
  Conduit Surcharge Summary
  *************************
  
  ----------------------------------------------------------------------------
                                                           Hours        Hours 
                         --------- Hours Full --------   Above Full   Capacity
  Conduit                Both Ends  Upstream  Dnstream   Normal Flow   Limited
  ----------------------------------------------------------------------------
  H0014431                    0.05      0.06      0.05      0.08         0.05
  H0017981                    0.01      0.01      0.01      0.09         0.01
  H0018216                    0.01      0.01      0.01      0.04         0.01
  H0019507                    0.01      0.01      0.04      0.01         0.01
  H0020211                    0.01      0.01      0.01      0.06         0.01
  H0018753                    0.01      0.01      0.06      0.01         0.01
  H0018863                    0.04      0.04      0.06      0.01         0.01
  H0018440                    0.03      0.08      0.03      0.11         0.07
  H0021806                    0.01      0.01      0.01      0.01         0.01
  H0021163                    0.01      0.01      0.01      0.03         0.01
  H0024098                    0.06      0.06      0.09      0.02         0.02
  H0024498                    0.01      0.05      0.01      0.09         0.02
  H0041011                    0.01      0.01      0.06      0.01         0.01
  H0045107                    0.03      0.03      0.06      0.01         0.01
  H0045108                    0.06      0.06      0.08      0.01         0.01
  

  Analysis begun on:  Fri Mar 15 16:26:16 2024
  Analysis ended on:  Fri Mar 15 16:26:50 2024
  Total elapsed time: 00:00:34