
  EPA STORM WATER MANAGEMENT MODEL - VERSION 5.2 (Build 5.2.4)
  PYSWMM TOOLKIT API - VERSION v1.0 (2023-11-27)
  ------------------------------------------------------------

  Gievenbeck_e2_T2D30 
  
  ****************
  Analysis Options
  ****************
  Flow Units ............... CMS
  Process Models:
    Rainfall/Runoff ........ YES
    RDII ................... NO
    Snowmelt ............... NO
    Groundwater ............ NO
    Flow Routing ........... YES
    Ponding Allowed ........ NO
    Water Quality .......... NO
  Infiltration Method ...... HORTON
  Flow Routing Method ...... DYNWAVE
  Surcharge Method ......... SLOT
  Starting Date ............ 01/01/2024 00:00:00
  Ending Date .............. 01/01/2024 02:00:00
  Antecedent Dry Days ...... 0.0
  Report Time Step ......... 00:01:00
  Wet Time Step ............ 00:01:00
  Dry Time Step ............ 00:01:00
  Routing Time Step ........ 1.00 sec
  Variable Time Step ....... YES
  Maximum Trials ........... 8
  Number of Threads ........ 1
  Head Tolerance ........... 0.001500 m
  
  
  **************************        Volume         Depth
  Runoff Quantity Continuity     hectare-m            mm
  **************************     ---------       -------
  Total Precipitation ......         0.153        15.300
  Evaporation Loss .........         0.000         0.026
  Infiltration Loss ........         0.031         3.089
  Surface Runoff ...........         0.106        10.566
  Final Storage ............         0.017         1.684
  Continuity Error (%) .....        -0.427
  
  
  **************************        Volume        Volume
  Flow Routing Continuity        hectare-m      10^6 ltr
  **************************     ---------     ---------
  Dry Weather Inflow .......         0.000         0.000
  Wet Weather Inflow .......         0.106         1.059
  Groundwater Inflow .......         0.000         0.000
  RDII Inflow ..............         0.000         0.000
  External Inflow ..........         0.000         0.000
  External Outflow .........         0.104         1.038
  Flooding Loss ............         0.001         0.013
  Evaporation Loss .........         0.000         0.000
  Exfiltration Loss ........         0.000         0.000
  Initial Stored Volume ....         0.000         0.000
  Final Stored Volume ......         0.001         0.012
  Continuity Error (%) .....        -0.434
  
  
  *************************
  Highest Continuity Errors
  *************************
  Node R0019718 (-2.32%)
  Node R0019719 (1.16%)
  
  
  ***************************
  Time-Step Critical Elements
  ***************************
  None
  
  
  ********************************
  Highest Flow Instability Indexes
  ********************************
  Link H0020530 (4)
  
  
  *********************************
  Most Frequent Nonconverging Nodes
  *********************************
  Convergence obtained at all time steps.
  
  
  *************************
  Routing Time Step Summary
  *************************
  Minimum Time Step           :     0.17 sec
  Average Time Step           :     1.00 sec
  Maximum Time Step           :     1.00 sec
  % of Time in Steady State   :     0.00
  Average Iterations per Step :     2.00
  % of Steps Not Converging   :     0.00
  Time Step Frequencies       :
      1.000 -  0.871 sec      :    99.97 %
      0.871 -  0.758 sec      :     0.00 %
      0.758 -  0.660 sec      :     0.03 %
      0.660 -  0.574 sec      :     0.00 %
      0.574 -  0.500 sec      :     0.00 %
  
  
  ***************************
  Subcatchment Runoff Summary
  ***************************
  
  ------------------------------------------------------------------------------------------------------------------------------
                            Total      Total      Total      Total     Imperv       Perv      Total       Total     Peak  Runoff
                           Precip      Runon       Evap      Infil     Runoff     Runoff     Runoff      Runoff   Runoff   Coeff
  Subcatchment                 mm         mm         mm         mm         mm         mm         mm    10^6 ltr      CMS
  ------------------------------------------------------------------------------------------------------------------------------
  EZG_371814                15.30       0.00       0.03       0.00      13.13       0.00      13.13        0.00     0.00   0.858
  EZG_372414                15.30       0.00       0.03       0.00      12.95       0.00      12.95        0.01     0.01   0.846
  EZG_377174                15.30       0.00       0.03       0.00      13.11       0.00      13.11        0.00     0.00   0.857
  EZG_377175                15.30       0.00       0.03       0.00      13.02       0.00      13.02        0.00     0.01   0.851
  EZG_372123                15.30       0.00       0.03       0.00      12.79       0.00      12.79        0.02     0.04   0.836
  EZG_374545                15.30       0.00       0.03       0.00      12.87       0.00      12.87        0.01     0.02   0.841
  EZG_376311                15.30       0.00       0.03       0.00      13.13       0.00      13.13        0.00     0.00   0.858
  EZG_372345                15.30       0.00       0.03       0.00      12.65       0.00      12.65        0.04     0.06   0.827
  EZG_374016                15.30       0.00       0.03       0.00      12.93       0.00      12.93        0.01     0.02   0.845
  EZG_377168                15.30       0.00       0.03       0.00      13.03       0.00      13.03        0.00     0.01   0.851
  EZG_377169                15.30       0.00       0.03       0.00      12.86       0.00      12.86        0.01     0.03   0.840
  EZG_377170                15.30       0.00       0.03       0.00      13.09       0.00      13.09        0.00     0.00   0.856
  EZG_377171                15.30       0.00       0.03       0.00      12.93       0.00      12.93        0.01     0.02   0.845
  EZG_377172                15.30       0.00       0.03       0.00      13.02       0.00      13.02        0.00     0.01   0.851
  EZG_377173                15.30       0.00       0.03       0.00      13.01       0.00      13.01        0.00     0.01   0.850
  EZG_375500                15.30       0.00       0.03       0.00      13.08       0.00      13.08        0.00     0.00   0.855
  EZG_374010                15.30       0.00       0.03       0.00      13.01       0.00      13.01        0.00     0.01   0.850
  EZG_374347                15.30       0.00       0.03       0.00      13.10       0.00      13.10        0.00     0.00   0.856
  EZG_374348                15.30       0.00       0.03       0.00      13.07       0.00      13.07        0.00     0.00   0.854
  EZG_374361                15.30       0.00       0.03       0.00      13.14       0.00      13.14        0.00     0.00   0.859
  EZG_376910                15.30       0.00       0.03       0.00      13.12       0.00      13.12        0.00     0.00   0.857
  EZG_374363                15.30       0.00       0.03       0.00      13.14       0.00      13.14        0.00     0.00   0.859
  EZG_376872                15.30       0.00       0.03       0.00      13.14       0.00      13.14        0.00     0.00   0.859
  EZG_374365                15.30       0.00       0.03       0.00      13.09       0.00      13.09        0.00     0.00   0.855
  EZG_376905                15.30       0.00       0.03       0.00      13.11       0.00      13.11        0.00     0.00   0.857
  EZG_374579                15.30       0.00       0.03       0.00      13.07       0.00      13.07        0.00     0.00   0.855
  EZG_374022                15.30       0.00       0.03       0.00      12.96       0.00      12.96        0.01     0.01   0.847
  EZG_377176                15.30       0.00       0.03       0.00      13.02       0.00      13.02        0.00     0.01   0.851
  EZG_377177                15.30       0.00       0.03       0.00      12.90       0.00      12.90        0.01     0.02   0.843
  EZG_376911                15.30       0.00       0.03       0.00      13.11       0.00      13.11        0.00     0.00   0.857
  EZG_376906                15.30       0.00       0.03       0.00      13.11       0.00      13.11        0.00     0.00   0.857
  EZG_377114                15.30       0.00       0.03       2.01       9.15       3.21      10.99        0.00     0.00   0.718
  EZG_376013                15.30       0.00       0.03       0.00      13.37       0.00      13.37        0.00     0.00   0.874
  EZG_373155                15.30       0.00       0.03       0.00      13.14       0.00      13.14        0.01     0.03   0.859
  EZG_372951                15.30       0.00       0.03       0.00      13.34       0.00      13.34        0.00     0.00   0.872
  EZG_376036                15.30       0.00       0.03       0.00      13.41       0.00      13.41        0.00     0.00   0.877
  EZG_374570                15.30       0.00       0.03       0.00      13.41       0.00      13.41        0.00     0.00   0.877
  EZG_373154                15.30       0.00       0.03       0.00      13.18       0.00      13.18        0.01     0.02   0.861
  EZG_373066                15.30       0.00       0.03       0.00      13.34       0.00      13.34        0.00     0.00   0.872
  EZG_376376                15.30       0.00       0.03       0.00      13.40       0.00      13.40        0.00     0.00   0.876
  EZG_374561                15.30       0.00       0.03       0.00      13.28       0.00      13.28        0.00     0.01   0.868
  EZG_372961                15.30       0.00       0.03       0.00      13.41       0.00      13.41        0.00     0.00   0.877
  EZG_373033                15.30       0.00       0.03       0.00      13.41       0.00      13.41        0.00     0.00   0.876
  EZG_374425                15.30       0.00       0.03       0.00      13.37       0.00      13.37        0.00     0.00   0.874
  EZG_374509                15.30       0.00       0.03       0.00      13.41       0.00      13.41        0.00     0.00   0.876
  EZG_373080                15.30       0.00       0.03       0.00      13.41       0.00      13.41        0.00     0.00   0.876
  EZG_372269                15.30       0.00       0.03       0.00      13.41       0.00      13.41        0.00     0.00   0.877
  EZG_376051                15.30       0.00       0.03       0.00      13.42       0.00      13.42        0.00     0.00   0.877
  EZG_374513                15.30       0.00       0.03       0.00      13.41       0.00      13.41        0.00     0.00   0.876
  EZG_376335                15.30       0.00       0.03       0.00      13.36       0.00      13.36        0.00     0.00   0.873
  EZG_372925                15.30       0.00       0.03       0.00      13.15       0.00      13.15        0.01     0.03   0.859
  EZG_375518                15.30       0.00       0.03       0.00      13.42       0.00      13.42        0.00     0.00   0.877
  EZG_372924                15.30       0.00       0.03       0.00      13.07       0.00      13.07        0.02     0.04   0.854
  EZG_372948                15.30       0.00       0.03       0.00      13.42       0.00      13.42        0.00     0.00   0.877
  EZG_374529                15.30       0.00       0.03       0.00      13.41       0.00      13.41        0.00     0.00   0.877
  EZG_374429                15.30       0.00       0.03       0.00      13.37       0.00      13.37        0.00     0.00   0.874
  EZG_372954                15.30       0.00       0.03       0.00      13.42       0.00      13.42        0.00     0.00   0.877
  EZG_373159                15.30       0.00       0.03       0.00      13.41       0.00      13.41        0.00     0.00   0.877
  EZG_373134                15.30       0.00       0.03       0.00      13.40       0.00      13.40        0.00     0.00   0.876
  EZG_372933                15.30       0.00       0.03       0.00      13.38       0.00      13.38        0.00     0.00   0.875
  EZG_375741                15.30       0.00       0.03       0.00      13.41       0.00      13.41        0.00     0.00   0.877
  EZG_372955                15.30       0.00       0.03       0.00      13.42       0.00      13.42        0.00     0.00   0.877
  EZG_376997                15.30       0.00       0.03       0.00      13.41       0.00      13.41        0.00     0.00   0.877
  EZG_373079                15.30       0.00       0.03       0.00      13.41       0.00      13.41        0.00     0.00   0.876
  EZG_373119                15.30       0.00       0.03       0.00      13.34       0.00      13.34        0.00     0.00   0.872
  EZG_374480                15.30       0.00       0.03       0.00      13.37       0.00      13.37        0.00     0.00   0.874
  EZG_374563                15.30       0.00       0.03       0.00      13.41       0.00      13.41        0.00     0.00   0.876
  EZG_372952                15.30       0.00       0.03       0.00      13.42       0.00      13.42        0.00     0.00   0.877
  EZG_372999                15.30       0.00       0.03       0.00      13.39       0.00      13.39        0.00     0.00   0.875
  EZG_373147                15.30       0.00       0.03       0.00      13.39       0.00      13.39        0.00     0.00   0.875
  EZG_376360                15.30       0.00       0.03       0.00      13.41       0.00      13.41        0.00     0.00   0.876
  EZG_376039                15.30       0.00       0.03       0.00      13.39       0.00      13.39        0.00     0.00   0.875
  EZG_372959                15.30       0.00       0.03       0.00      13.33       0.00      13.33        0.00     0.00   0.871
  EZG_373031                15.30       0.00       0.03       0.00      13.42       0.00      13.42        0.00     0.00   0.877
  EZG_375504                15.30       0.00       0.03       0.00      13.29       0.00      13.29        0.00     0.01   0.869
  EZG_376377                15.30       0.00       0.03       0.00      13.41       0.00      13.41        0.00     0.00   0.876
  EZG_373166                15.30       0.00       0.03       0.00      13.41       0.00      13.41        0.00     0.00   0.877
  EZG_375520                15.30       0.00       0.03       0.00      13.41       0.00      13.41        0.00     0.00   0.877
  EZG_373120                15.30       0.00       0.03       0.00      13.41       0.00      13.41        0.00     0.00   0.876
  EZG_372995                15.30       0.00       0.03       0.00      13.17       0.00      13.17        0.01     0.02   0.861
  EZG_373158                15.30       0.00       0.03       0.00      13.11       0.00      13.11        0.02     0.03   0.857
  EZG_374486                15.30       0.00       0.03       0.00      13.38       0.00      13.38        0.00     0.00   0.874
  EZG_376050                15.30       0.00       0.03       0.00      13.39       0.00      13.39        0.00     0.00   0.875
  EZG_372931                15.30       0.00       0.03       0.00      13.41       0.00      13.41        0.00     0.00   0.876
  EZG_373162                15.30       0.00       0.03       0.00      13.38       0.00      13.38        0.00     0.00   0.874
  EZG_373063                15.30       0.00       0.03       0.00      13.41       0.00      13.41        0.00     0.00   0.876
  EZG_376012                15.30       0.00       0.03       0.00      13.41       0.00      13.41        0.00     0.00   0.877
  EZG_373164                15.30       0.00       0.03       0.00      13.42       0.00      13.42        0.00     0.00   0.877
  EZG_374515                15.30       0.00       0.03       0.00      13.35       0.00      13.35        0.00     0.00   0.873
  EZG_373139                15.30       0.00       0.03       0.00      13.39       0.00      13.39        0.00     0.00   0.875
  EZG_374481                15.30       0.00       0.03       0.00      13.41       0.00      13.41        0.00     0.00   0.877
  EZG_372950                15.30       0.00       0.03       0.00      13.42       0.00      13.42        0.00     0.00   0.877
  EZG_373157                15.30       0.00       0.03       0.00      13.22       0.00      13.22        0.01     0.02   0.864
  EZG_373170                15.30       0.00       0.03       0.00      13.41       0.00      13.41        0.00     0.00   0.876
  EZG_374428                15.30       0.00       0.03       0.00      13.29       0.00      13.29        0.00     0.01   0.868
  EZG_374564                15.30       0.00       0.03       0.00      13.32       0.00      13.32        0.00     0.00   0.871
  EZG_373132                15.30       0.00       0.03       0.00      13.40       0.00      13.40        0.00     0.00   0.876
  EZG_374431                15.30       0.00       0.03       0.00      13.31       0.00      13.31        0.00     0.01   0.870
  EZG_374512                15.30       0.00       0.03       0.00      13.38       0.00      13.38        0.00     0.00   0.875
  EZG_374436                15.30       0.00       0.03       0.00      13.40       0.00      13.40        0.00     0.00   0.876
  EZG_373137                15.30       0.00       0.03       0.00      13.41       0.00      13.41        0.00     0.00   0.876
  EZG_373151                15.30       0.00       0.03       0.00      13.39       0.00      13.39        0.00     0.00   0.875
  EZG_373152                15.30       0.00       0.03       0.00      13.39       0.00      13.39        0.00     0.00   0.875
  EZG_373167                15.30       0.00       0.03       0.00      13.41       0.00      13.41        0.00     0.00   0.876
  EZG_373156                15.30       0.00       0.03       0.00      13.22       0.00      13.22        0.01     0.02   0.864
  EZG_373169                15.30       0.00       0.03       0.00      13.40       0.00      13.40        0.00     0.00   0.876
  EZG_373143                15.30       0.00       0.03       0.00      13.41       0.00      13.41        0.00     0.00   0.876
  EZG_376356                15.30       0.00       0.03       0.00      13.41       0.00      13.41        0.00     0.00   0.876
  EZG_373145                15.30       0.00       0.03       0.00      13.40       0.00      13.40        0.00     0.00   0.876
  EZG_376317                15.30       0.00       0.03       0.00      13.42       0.00      13.42        0.00     0.00   0.877
  EZG_373001                15.30       0.00       0.03       0.00      13.39       0.00      13.39        0.00     0.00   0.875
  EZG_376984                15.30       0.00       0.03       0.00      13.40       0.00      13.40        0.00     0.00   0.876
  EZG_376040                15.30       0.00       0.03       0.00      13.38       0.00      13.38        0.00     0.00   0.874
  EZG_376307                15.30       0.00       0.03       0.00      13.39       0.00      13.39        0.00     0.00   0.875
  EZG_374514                15.30       0.00       0.03       0.00      13.38       0.00      13.38        0.00     0.00   0.874
  EZG_374437                15.30       0.00       0.03       0.00      13.39       0.00      13.39        0.00     0.00   0.875
  EZG_372944                15.30       0.00       0.03       0.00      13.40       0.00      13.40        0.00     0.00   0.876
  EZG_376325                15.30       0.00       0.03       0.00      13.42       0.00      13.42        0.00     0.00   0.877
  EZG_375747                15.30       0.00       0.03       0.00      13.41       0.00      13.41        0.00     0.00   0.877
  EZG_374483                15.30       0.00       0.03       0.00      13.38       0.00      13.38        0.00     0.00   0.875
  EZG_374484                15.30       0.00       0.03       0.00      13.30       0.00      13.30        0.00     0.01   0.869
  EZG_374485                15.30       0.00       0.03       0.00      13.39       0.00      13.39        0.00     0.00   0.875
  EZG_372929                15.30       0.00       0.03       0.00      13.36       0.00      13.36        0.00     0.00   0.873
  EZG_372930                15.30       0.00       0.03       0.00      12.99       0.00      12.99        0.03     0.06   0.849
  EZG_374118                15.30       0.00       0.03       0.00      13.42       0.00      13.42        0.00     0.00   0.877
  EZG_376052                15.30       0.00       0.03       0.00      13.42       0.00      13.42        0.00     0.00   0.877
  EZG_372932                15.30       0.00       0.03       0.00      13.37       0.00      13.37        0.00     0.00   0.874
  EZG_374432                15.30       0.00       0.03       0.00      13.42       0.00      13.42        0.00     0.00   0.877
  EZG_374569                15.30       0.00       0.03       0.00      13.36       0.00      13.36        0.00     0.00   0.873
  EZG_372421                15.30       0.00       0.03       0.00      13.41       0.00      13.41        0.00     0.00   0.876
  EZG_373078                15.30       0.00       0.03       0.00      13.41       0.00      13.41        0.00     0.00   0.876
  EZG_374482                15.30       0.00       0.03       0.00      13.40       0.00      13.40        0.00     0.00   0.876
  EZG_376354                15.30       0.00       0.03       0.00      13.42       0.00      13.42        0.00     0.00   0.877
  EZG_374562                15.30       0.00       0.03       0.00      13.41       0.00      13.41        0.00     0.00   0.876
  EZG_373192                15.30       0.00       0.03       0.00      13.42       0.00      13.42        0.00     0.00   0.877
  EZG_376021                15.30       0.00       0.03       0.00      13.38       0.00      13.38        0.00     0.00   0.874
  EZG_374510                15.30       0.00       0.03       0.00      13.41       0.00      13.41        0.00     0.00   0.876
  EZG_374511                15.30       0.00       0.03       0.00      13.39       0.00      13.39        0.00     0.00   0.875
  EZG_374567                15.30       0.00       0.03       0.00      13.33       0.00      13.33        0.00     0.00   0.871
  EZG_374430                15.30       0.00       0.03       0.00      13.41       0.00      13.41        0.00     0.00   0.877
  EZG_376316                15.30       0.00       0.03       0.00      13.42       0.00      13.42        0.00     0.00   0.877
  EZG_375755                15.30       0.00       0.03       0.00      13.42       0.00      13.42        0.00     0.00   0.877
  EZG_373142                15.30       0.00       0.03       0.00      13.41       0.00      13.41        0.00     0.00   0.876
  EZG_372927                15.30       0.00       0.03       0.00      13.36       0.00      13.36        0.00     0.00   0.873
  EZG_373141                15.30       0.00       0.03       0.00      13.40       0.00      13.40        0.00     0.00   0.876
  EZG_372928                15.30       0.00       0.03       0.00      13.11       0.00      13.11        0.02     0.03   0.857
  EZG_376037                15.30       0.00       0.03       0.00      13.41       0.00      13.41        0.00     0.00   0.877
  EZG_373148                15.30       0.00       0.03       0.00      13.41       0.00      13.41        0.00     0.00   0.876
  EZG_374566                15.30       0.00       0.03       0.00      13.34       0.00      13.34        0.00     0.00   0.872
  EZG_372926                15.30       0.00       0.03       0.00      13.15       0.00      13.15        0.01     0.03   0.859
  EZG_372964                15.30       0.00       0.03       0.00      13.42       0.00      13.42        0.00     0.00   0.877
  EZG_373059                15.30       0.00       0.03       0.00      13.36       0.00      13.36        0.00     0.00   0.873
  EZG_376326                15.30       0.00       0.03       4.12       6.71       6.94      10.29        0.00     0.00   0.673
  EZG_374142                15.30       0.00       0.03       3.92       6.71       7.18      10.53        0.00     0.00   0.688
  EZG_376049                15.30       0.00       0.02       3.94       6.71       7.16      10.51        0.00     0.00   0.687
  EZG_374141                15.30       0.00       0.03       4.09       6.71       6.96      10.32        0.00     0.00   0.674
  EZG_377102                15.30       0.00       0.03       4.11       6.71       6.94      10.29        0.00     0.00   0.673
  EZG_376999                15.30       0.00       0.03       3.96       6.71       7.13      10.48        0.00     0.00   0.685
  EZG_377101                15.30       0.00       0.03       4.00       6.71       7.08      10.43        0.00     0.00   0.682
  EZG_374417                15.30       0.00       0.03       0.00      13.01       0.00      13.01        0.00     0.00   0.851
  EZG_374230                15.30       0.00       0.03       0.00      12.77       0.00      12.77        0.01     0.01   0.835
  EZG_374392                15.30       0.00       0.03       0.00      12.99       0.00      12.99        0.00     0.00   0.849
  EZG_374416                15.30       0.00       0.03       0.00      13.02       0.00      13.02        0.00     0.00   0.851
  EZG_372268                15.30       0.00       0.03       0.00      12.91       0.00      12.91        0.00     0.00   0.843
  EZG_372322                15.30       0.00       0.03       0.00      12.98       0.00      12.98        0.00     0.00   0.848
  EZG_374556                15.30       0.00       0.03       0.00      12.96       0.00      12.96        0.00     0.00   0.847
  EZG_374234                15.30       0.00       0.03       0.00      13.00       0.00      13.00        0.00     0.00   0.850
  EZG_374342                15.30       0.00       0.03       0.00      13.02       0.00      13.02        0.00     0.00   0.851
  EZG_374298                15.30       0.00       0.03       0.00      12.98       0.00      12.98        0.00     0.00   0.848
  EZG_375683                15.30       0.00       0.03       0.00      13.03       0.00      13.03        0.00     0.00   0.852
  EZG_374290                15.30       0.00       0.03       0.00      12.98       0.00      12.98        0.00     0.00   0.848
  EZG_374258                15.30       0.00       0.03       0.00      12.94       0.00      12.94        0.00     0.00   0.846
  EZG_374302                15.30       0.00       0.03       0.00      12.95       0.00      12.95        0.00     0.00   0.847
  EZG_374260                15.30       0.00       0.03       0.00      12.90       0.00      12.90        0.00     0.00   0.843
  EZG_374227                15.30       0.00       0.03       0.00      12.92       0.00      12.92        0.00     0.00   0.845
  EZG_372270                15.30       0.00       0.03       0.00      12.94       0.00      12.94        0.00     0.00   0.846
  EZG_374310                15.30       0.00       0.03       0.00      12.99       0.00      12.99        0.00     0.00   0.849
  EZG_374333                15.30       0.00       0.03       0.00      12.96       0.00      12.96        0.00     0.00   0.847
  EZG_374447                15.30       0.00       0.03       0.00      13.01       0.00      13.01        0.00     0.00   0.851
  EZG_374552                15.30       0.00       0.03       0.00      12.94       0.00      12.94        0.00     0.00   0.846
  EZG_374412                15.30       0.00       0.03       0.00      13.01       0.00      13.01        0.00     0.00   0.851
  EZG_374129                15.30       0.00       0.03       0.00      12.95       0.00      12.95        0.00     0.00   0.846
  EZG_374554                15.30       0.00       0.03       0.00      13.03       0.00      13.03        0.00     0.00   0.852
  EZG_374555                15.30       0.00       0.03       0.00      12.99       0.00      12.99        0.00     0.00   0.849
  EZG_374418                15.30       0.00       0.03       0.00      13.01       0.00      13.01        0.00     0.00   0.851
  EZG_374259                15.30       0.00       0.03       0.00      12.68       0.00      12.68        0.01     0.02   0.829
  EZG_374124                15.30       0.00       0.03       0.00      12.98       0.00      12.98        0.00     0.00   0.848
  EZG_374396                15.30       0.00       0.03       0.00      13.02       0.00      13.02        0.00     0.00   0.851
  EZG_375522                15.30       0.00       0.03       0.00      13.03       0.00      13.03        0.00     0.00   0.852
  EZG_374398                15.30       0.00       0.03       0.00      13.01       0.00      13.01        0.00     0.00   0.851
  EZG_374549                15.30       0.00       0.03       0.00      12.96       0.00      12.96        0.00     0.00   0.847
  EZG_374299                15.30       0.00       0.03       0.00      12.99       0.00      12.99        0.00     0.00   0.849
  EZG_374143                15.30       0.00       0.03       0.00      12.96       0.00      12.96        0.00     0.00   0.847
  EZG_375694                15.30       0.00       0.03       0.00      13.02       0.00      13.02        0.00     0.00   0.851
  EZG_372333                15.30       0.00       0.03       0.00      12.93       0.00      12.93        0.00     0.00   0.845
  EZG_374387                15.30       0.00       0.03       0.00      13.01       0.00      13.01        0.00     0.00   0.850
  EZG_374388                15.30       0.00       0.03       0.00      12.94       0.00      12.94        0.00     0.00   0.846
  EZG_375516                15.30       0.00       0.03       0.00      12.80       0.00      12.80        0.00     0.01   0.837
  EZG_374225                15.30       0.00       0.03       0.00      12.98       0.00      12.98        0.00     0.00   0.849
  EZG_375551                15.30       0.00       0.03       0.00      13.02       0.00      13.02        0.00     0.00   0.851
  EZG_372326                15.30       0.00       0.03       0.00      12.95       0.00      12.95        0.00     0.00   0.846
  EZG_372133                15.30       0.00       0.03       0.00      12.90       0.00      12.90        0.00     0.00   0.843
  EZG_374126                15.30       0.00       0.03       0.00      13.03       0.00      13.03        0.00     0.00   0.852
  EZG_376381                15.30       0.00       0.03       0.00      13.02       0.00      13.02        0.00     0.00   0.851
  EZG_374338                15.30       0.00       0.03       0.00      13.02       0.00      13.02        0.00     0.00   0.851
  EZG_374229                15.30       0.00       0.03       0.00      12.75       0.00      12.75        0.01     0.01   0.833
  EZG_374256                15.30       0.00       0.03       0.00      12.95       0.00      12.95        0.00     0.00   0.846
  EZG_375546                15.30       0.00       0.03       0.00      12.98       0.00      12.98        0.00     0.00   0.848
  EZG_372147                15.30       0.00       0.03       0.00      12.88       0.00      12.88        0.00     0.00   0.842
  EZG_374301                15.30       0.00       0.03       0.00      12.94       0.00      12.94        0.00     0.00   0.846
  EZG_374147                15.30       0.00       0.03       0.00      13.03       0.00      13.03        0.00     0.00   0.852
  EZG_374149                15.30       0.00       0.03       0.00      12.85       0.00      12.85        0.00     0.00   0.840
  EZG_374304                15.30       0.00       0.03       0.00      12.80       0.00      12.80        0.00     0.01   0.836
  EZG_375785                15.30       0.00       0.03       0.00      12.94       0.00      12.94        0.00     0.00   0.846
  EZG_376043                15.30       0.00       0.03       0.00      12.92       0.00      12.92        0.00     0.00   0.845
  EZG_372304                15.30       0.00       0.03       0.00      12.87       0.00      12.87        0.00     0.00   0.841
  EZG_374226                15.30       0.00       0.03       0.00      12.89       0.00      12.89        0.00     0.00   0.843
  EZG_374128                15.30       0.00       0.03       0.00      12.96       0.00      12.96        0.00     0.00   0.847
  EZG_374130                15.30       0.00       0.03       0.00      12.97       0.00      12.97        0.00     0.00   0.848
  EZG_375558                15.30       0.00       0.03       0.00      13.03       0.00      13.03        0.00     0.00   0.851
  EZG_375559                15.30       0.00       0.03       0.00      13.02       0.00      13.02        0.00     0.00   0.851
  EZG_372186                15.30       0.00       0.03       0.00      12.81       0.00      12.81        0.00     0.01   0.837
  EZG_375574                15.30       0.00       0.03       0.00      12.99       0.00      12.99        0.00     0.00   0.849
  EZG_375562                15.30       0.00       0.03       0.00      13.02       0.00      13.02        0.00     0.00   0.851
  EZG_375517                15.30       0.00       0.03       0.00      13.00       0.00      13.00        0.00     0.00   0.850
  EZG_374318                15.30       0.00       0.03       0.00      12.98       0.00      12.98        0.00     0.00   0.849
  EZG_376015                15.30       0.00       0.03       0.00      13.01       0.00      13.01        0.00     0.00   0.850
  EZG_374559                15.30       0.00       0.03       0.00      12.96       0.00      12.96        0.00     0.00   0.847
  EZG_374240                15.30       0.00       0.03       0.00      12.99       0.00      12.99        0.00     0.00   0.849
  EZG_374422                15.30       0.00       0.03       0.00      13.02       0.00      13.02        0.00     0.00   0.851
  EZG_375509                15.30       0.00       0.03       0.00      13.00       0.00      13.00        0.00     0.00   0.850
  EZG_374297                15.30       0.00       0.03       0.00      12.99       0.00      12.99        0.00     0.00   0.849
  EZG_375691                15.30       0.00       0.03       0.00      12.96       0.00      12.96        0.00     0.00   0.847
  EZG_373194                15.30       0.00       0.03       0.00      12.81       0.00      12.81        0.00     0.01   0.837
  EZG_372405                15.30       0.00       0.03       0.00      12.81       0.00      12.81        0.00     0.01   0.837
  EZG_374448                15.30       0.00       0.03       0.00      12.99       0.00      12.99        0.00     0.00   0.849
  EZG_375548                15.30       0.00       0.03       0.00      12.96       0.00      12.96        0.00     0.00   0.847
  EZG_374303                15.30       0.00       0.03       0.00      12.96       0.00      12.96        0.00     0.00   0.847
  EZG_374291                15.30       0.00       0.03       0.00      12.97       0.00      12.97        0.00     0.00   0.848
  EZG_374027                15.30       0.00       0.03       0.00      12.93       0.00      12.93        0.00     0.00   0.845
  EZG_375552                15.30       0.00       0.03       0.00      13.03       0.00      13.03        0.00     0.00   0.851
  EZG_375639                15.30       0.00       0.03       0.00      12.85       0.00      12.85        0.00     0.00   0.840
  EZG_375787                15.30       0.00       0.03       0.00      13.00       0.00      13.00        0.00     0.00   0.850
  EZG_374503                15.30       0.00       0.03       0.00      13.02       0.00      13.02        0.00     0.00   0.851
  EZG_372180                15.30       0.00       0.03       0.00      12.80       0.00      12.80        0.00     0.01   0.836
  EZG_374257                15.30       0.00       0.03       0.00      12.94       0.00      12.94        0.00     0.00   0.846
  EZG_372399                15.30       0.00       0.03       0.00      12.66       0.00      12.66        0.01     0.03   0.828
  EZG_375645                15.30       0.00       0.03       0.00      12.95       0.00      12.95        0.00     0.00   0.846
  EZG_375667                15.30       0.00       0.03       0.00      13.03       0.00      13.03        0.00     0.00   0.852
  EZG_375668                15.30       0.00       0.03       0.00      13.03       0.00      13.03        0.00     0.00   0.852
  EZG_375549                15.30       0.00       0.03       0.00      12.96       0.00      12.96        0.00     0.00   0.847
  EZG_375682                15.30       0.00       0.03       0.00      12.99       0.00      12.99        0.00     0.00   0.849
  EZG_376893                15.30       0.00       0.03       0.00      12.97       0.00      12.97        0.00     0.00   0.848
  EZG_372324                15.30       0.00       0.03       0.00      12.99       0.00      12.99        0.00     0.00   0.849
  EZG_374123                15.30       0.00       0.03       0.00      12.98       0.00      12.98        0.00     0.00   0.849
  EZG_374420                15.30       0.00       0.03       0.00      13.01       0.00      13.01        0.00     0.00   0.850
  EZG_374295                15.30       0.00       0.03       0.00      12.98       0.00      12.98        0.00     0.00   0.848
  EZG_374255                15.30       0.00       0.03       0.00      12.95       0.00      12.95        0.00     0.00   0.847
  EZG_375643                15.30       0.00       0.03       0.00      12.95       0.00      12.95        0.00     0.00   0.847
  EZG_375644                15.30       0.00       0.03       0.00      12.95       0.00      12.95        0.00     0.00   0.846
  EZG_376343                15.30       0.00       0.03       0.00      12.91       0.00      12.91        0.00     0.00   0.844
  EZG_376344                15.30       0.00       0.03       0.00      12.99       0.00      12.99        0.00     0.00   0.849
  EZG_374131                15.30       0.00       0.03       0.00      12.91       0.00      12.91        0.00     0.00   0.844
  EZG_375669                15.30       0.00       0.03       0.00      13.03       0.00      13.03        0.00     0.00   0.851
  EZG_374135                15.30       0.00       0.03       0.00      13.02       0.00      13.02        0.00     0.00   0.851
  EZG_374360                15.30       0.00       0.03       0.00      12.68       0.00      12.68        0.01     0.02   0.829
  EZG_374249                15.30       0.00       0.03       0.00      12.97       0.00      12.97        0.00     0.00   0.848
  EZG_374137                15.30       0.00       0.03       0.00      12.87       0.00      12.87        0.00     0.00   0.841
  EZG_375743                15.30       0.00       0.03       0.00      12.95       0.00      12.95        0.00     0.00   0.846
  EZG_375687                15.30       0.00       0.03       0.00      12.87       0.00      12.87        0.00     0.00   0.841
  EZG_374336                15.30       0.00       0.03       0.00      12.82       0.00      12.82        0.00     0.01   0.838
  EZG_374504                15.30       0.00       0.03       0.00      13.01       0.00      13.01        0.00     0.00   0.851
  EZG_372181                15.30       0.00       0.03       0.00      12.82       0.00      12.82        0.00     0.01   0.838
  EZG_376939                15.30       0.00       0.03       0.00      13.01       0.00      13.01        0.00     0.00   0.850
  EZG_374385                15.30       0.00       0.03       0.00      13.01       0.00      13.01        0.00     0.00   0.851
  EZG_374144                15.30       0.00       0.03       0.00      12.98       0.00      12.98        0.00     0.00   0.848
  EZG_375757                15.30       0.00       0.03       0.00      13.03       0.00      13.03        0.00     0.00   0.852
  EZG_375781                15.30       0.00       0.03       0.00      12.83       0.00      12.83        0.00     0.01   0.839
  EZG_374451                15.30       0.00       0.03       0.00      12.82       0.00      12.82        0.00     0.01   0.838
  EZG_374390                15.30       0.00       0.03       0.00      12.91       0.00      12.91        0.00     0.00   0.844
  EZG_375784                15.30       0.00       0.03       0.00      12.96       0.00      12.96        0.00     0.00   0.847
  EZG_376364                15.30       0.00       0.03       0.00      12.98       0.00      12.98        0.00     0.00   0.848
  EZG_375640                15.30       0.00       0.03       0.00      12.93       0.00      12.93        0.00     0.00   0.845
  EZG_375688                15.30       0.00       0.03       0.00      12.98       0.00      12.98        0.00     0.00   0.849
  EZG_376355                15.30       0.00       0.03       0.00      13.02       0.00      13.02        0.00     0.00   0.851
  EZG_375544                15.30       0.00       0.03       0.00      13.00       0.00      13.00        0.00     0.00   0.850
  EZG_374228                15.30       0.00       0.03       0.00      12.92       0.00      12.92        0.00     0.00   0.844
  EZG_374411                15.30       0.00       0.03       0.00      13.02       0.00      13.02        0.00     0.00   0.851
  EZG_375512                15.30       0.00       0.03       0.00      12.97       0.00      12.97        0.00     0.00   0.848
  EZG_374413                15.30       0.00       0.03       0.00      13.01       0.00      13.01        0.00     0.00   0.850
  EZG_372145                15.30       0.00       0.03       0.00      12.92       0.00      12.92        0.00     0.00   0.844
  EZG_374415                15.30       0.00       0.03       0.00      13.01       0.00      13.01        0.00     0.00   0.851
  EZG_376375                15.30       0.00       0.03       0.00      12.94       0.00      12.94        0.00     0.00   0.846
  EZG_375564                15.30       0.00       0.03       0.00      12.93       0.00      12.93        0.00     0.00   0.845
  EZG_374494                15.30       0.00       0.03       0.00      13.01       0.00      13.01        0.00     0.00   0.851
  EZG_374307                15.30       0.00       0.03       0.00      12.94       0.00      12.94        0.00     0.00   0.846
  EZG_376366                15.30       0.00       0.03       0.00      13.02       0.00      13.02        0.00     0.00   0.851
  EZG_374397                15.30       0.00       0.03       0.00      13.01       0.00      13.01        0.00     0.00   0.850
  EZG_375789                15.30       0.00       0.03       0.00      13.03       0.00      13.03        0.00     0.00   0.852
  EZG_375690                15.30       0.00       0.03       0.00      13.02       0.00      13.02        0.00     0.00   0.851
  EZG_375524                15.30       0.00       0.03       0.00      12.99       0.00      12.99        0.00     0.00   0.849
  EZG_374243                15.30       0.00       0.03       0.00      12.99       0.00      12.99        0.00     0.00   0.849
  EZG_374244                15.30       0.00       0.03       0.00      12.99       0.00      12.99        0.00     0.00   0.849
  EZG_372188                15.30       0.00       0.03       0.00      12.99       0.00      12.99        0.00     0.00   0.849
  EZG_374316                15.30       0.00       0.03       0.00      12.76       0.00      12.76        0.01     0.01   0.834
  EZG_372337                15.30       0.00       0.03       0.00      12.99       0.00      12.99        0.00     0.00   0.849
  EZG_375578                15.30       0.00       0.03       0.00      13.01       0.00      13.01        0.00     0.00   0.850
  EZG_374250                15.30       0.00       0.03       0.00      12.97       0.00      12.97        0.00     0.00   0.848
  EZG_374440                15.30       0.00       0.03       0.00      12.82       0.00      12.82        0.00     0.01   0.838
  EZG_376017                15.30       0.00       0.03       0.00      13.03       0.00      13.03        0.00     0.00   0.852
  EZG_375521                15.30       0.00       0.03       0.00      12.98       0.00      12.98        0.00     0.00   0.848
  EZG_376059                15.30       0.00       0.03       0.00      12.87       0.00      12.87        0.00     0.00   0.841
  EZG_376938                15.30       0.00       0.03       0.00      13.03       0.00      13.03        0.00     0.00   0.852
  EZG_376034                15.30       0.00       0.03       0.00      12.98       0.00      12.98        0.00     0.00   0.848
  EZG_375545                15.30       0.00       0.03       0.00      12.99       0.00      12.99        0.00     0.00   0.849
  EZG_376607                15.30       0.00       0.03       0.00      12.99       0.00      12.99        0.00     0.00   0.849
  EZG_375547                15.30       0.00       0.03       0.00      12.97       0.00      12.97        0.00     0.00   0.847
  EZG_376038                15.30       0.00       0.03       0.00      13.01       0.00      13.01        0.00     0.00   0.851
  EZG_375502                15.30       0.00       0.03       0.00      13.00       0.00      13.00        0.00     0.00   0.850
  EZG_376611                15.30       0.00       0.03       0.00      12.95       0.00      12.95        0.00     0.00   0.846
  EZG_376612                15.30       0.00       0.03       0.00      12.94       0.00      12.94        0.00     0.00   0.846
  EZG_376042                15.30       0.00       0.03       0.00      12.96       0.00      12.96        0.00     0.00   0.847
  EZG_376614                15.30       0.00       0.03       0.00      12.90       0.00      12.90        0.00     0.00   0.843
  EZG_374294                15.30       0.00       0.03       0.00      12.97       0.00      12.97        0.00     0.00   0.848
  EZG_374253                15.30       0.00       0.03       0.00      12.96       0.00      12.96        0.00     0.00   0.847
  EZG_372305                15.30       0.00       0.03       0.00      12.98       0.00      12.98        0.00     0.00   0.848
  EZG_375557                15.30       0.00       0.03       0.00      13.03       0.00      13.03        0.00     0.00   0.852
  EZG_376048                15.30       0.00       0.03       0.00      12.95       0.00      12.95        0.00     0.00   0.846
  EZG_376330                15.30       0.00       0.03       0.00      13.02       0.00      13.02        0.00     0.00   0.851
  EZG_375560                15.30       0.00       0.03       0.00      13.00       0.00      13.00        0.00     0.00   0.849
  EZG_375561                15.30       0.00       0.03       0.00      13.03       0.00      13.03        0.00     0.00   0.851
  EZG_376821                15.30       0.00       0.03       0.00      12.96       0.00      12.96        0.00     0.00   0.847
  EZG_375563                15.30       0.00       0.03       0.00      12.87       0.00      12.87        0.00     0.00   0.841
  EZG_377100                15.30       0.00       0.03       0.00      12.97       0.00      12.97        0.00     0.00   0.848
  EZG_374122                15.30       0.00       0.03       0.00      12.99       0.00      12.99        0.00     0.00   0.849
  EZG_375686                15.30       0.00       0.03       0.00      12.85       0.00      12.85        0.00     0.00   0.840
  EZG_374501                15.30       0.00       0.03       0.00      12.99       0.00      12.99        0.00     0.00   0.849
  EZG_376045                15.30       0.00       0.03       0.00      13.01       0.00      13.01        0.00     0.00   0.850
  EZG_377110                15.30       0.00       0.03       0.00      13.01       0.00      13.01        0.00     0.00   0.850
  EZG_376590                15.30       0.00       0.03       0.00      12.75       0.00      12.75        0.01     0.01   0.834
  EZG_374505                15.30       0.00       0.03       0.00      12.99       0.00      12.99        0.00     0.00   0.849
  EZG_376841                15.30       0.00       0.03       0.00      12.96       0.00      12.96        0.00     0.00   0.847
  EZG_373197                15.30       0.00       0.03       0.00      12.99       0.00      12.99        0.00     0.00   0.849
  EZG_376064                15.30       0.00       0.03       0.00      13.02       0.00      13.02        0.00     0.00   0.851
  EZG_374246                15.30       0.00       0.03       0.00      12.98       0.00      12.98        0.00     0.00   0.848
  EZG_374134                15.30       0.00       0.03       0.00      12.94       0.00      12.94        0.00     0.00   0.846
  EZG_376349                15.30       0.00       0.03       0.00      13.03       0.00      13.03        0.00     0.00   0.851
  EZG_374439                15.30       0.00       0.03       0.00      12.95       0.00      12.95        0.00     0.00   0.846
  EZG_374319                15.30       0.00       0.03       0.00      12.89       0.00      12.89        0.00     0.00   0.842
  EZG_374138                15.30       0.00       0.03       0.00      13.02       0.00      13.02        0.00     0.00   0.851
  EZG_374502                15.30       0.00       0.03       0.00      13.02       0.00      13.02        0.00     0.00   0.851
  EZG_372396                15.30       0.00       0.03       0.00      12.55       0.00      12.55        0.02     0.04   0.820
  EZG_374254                15.30       0.00       0.03       0.00      12.95       0.00      12.95        0.00     0.00   0.847
  EZG_374324                15.30       0.00       0.03       0.00      12.99       0.00      12.99        0.00     0.00   0.849
  EZG_374325                15.30       0.00       0.03       0.00      12.98       0.00      12.98        0.00     0.00   0.849
  EZG_375631                15.30       0.00       0.03       0.00      13.02       0.00      13.02        0.00     0.00   0.851
  EZG_372407                15.30       0.00       0.03       0.00      12.87       0.00      12.87        0.00     0.00   0.841
  EZG_374540                15.30       0.00       0.03       0.00      12.98       0.00      12.98        0.00     0.00   0.848
  EZG_376610                15.30       0.00       0.03       0.00      12.95       0.00      12.95        0.00     0.00   0.846
  EZG_374330                15.30       0.00       0.03       0.00      12.97       0.00      12.97        0.00     0.00   0.848
  EZG_374331                15.30       0.00       0.03       0.00      12.95       0.00      12.95        0.00     0.00   0.847
  EZG_374544                15.30       0.00       0.03       0.00      12.79       0.00      12.79        0.00     0.01   0.836
  EZG_376324                15.30       0.00       0.03       0.00      13.03       0.00      13.03        0.00     0.00   0.852
  EZG_376883                15.30       0.00       0.03       0.00      12.95       0.00      12.95        0.00     0.00   0.847
  EZG_376884                15.30       0.00       0.03       0.00      12.95       0.00      12.95        0.00     0.00   0.846
  EZG_376327                15.30       0.00       0.03       0.00      13.03       0.00      13.03        0.00     0.00   0.852
  EZG_376328                15.30       0.00       0.03       0.00      13.02       0.00      13.02        0.00     0.00   0.851
  EZG_376329                15.30       0.00       0.03       0.00      13.02       0.00      13.02        0.00     0.00   0.851
  EZG_376008                15.30       0.00       0.03       0.00      13.01       0.00      13.01        0.00     0.00   0.851
  EZG_376331                15.30       0.00       0.03       0.00      13.01       0.00      13.01        0.00     0.00   0.851
  EZG_376332                15.30       0.00       0.03       0.00      13.01       0.00      13.01        0.00     0.00   0.850
  EZG_376333                15.30       0.00       0.03       0.00      13.01       0.00      13.01        0.00     0.00   0.850
  EZG_376334                15.30       0.00       0.03       0.00      13.01       0.00      13.01        0.00     0.00   0.851
  EZG_376053                15.30       0.00       0.03       0.00      12.99       0.00      12.99        0.00     0.00   0.849
  EZG_376833                15.30       0.00       0.03       0.00      12.96       0.00      12.96        0.00     0.00   0.847
  EZG_375685                15.30       0.00       0.03       0.00      13.03       0.00      13.03        0.00     0.00   0.852
  EZG_376896                15.30       0.00       0.03       0.00      12.96       0.00      12.96        0.00     0.00   0.847
  EZG_377104                15.30       0.00       0.03       0.00      12.91       0.00      12.91        0.00     0.00   0.844
  EZG_375568                15.30       0.00       0.03       0.00      13.00       0.00      13.00        0.00     0.00   0.850
  EZG_375570                15.30       0.00       0.03       0.00      13.00       0.00      13.00        0.00     0.00   0.849
  EZG_376060                15.30       0.00       0.03       0.00      12.94       0.00      12.94        0.00     0.00   0.846
  EZG_376901                15.30       0.00       0.03       0.00      12.96       0.00      12.96        0.00     0.00   0.847
  EZG_376902                15.30       0.00       0.03       0.00      12.91       0.00      12.91        0.00     0.00   0.844
  EZG_376903                15.30       0.00       0.03       0.00      12.86       0.00      12.86        0.00     0.00   0.841
  EZG_374132                15.30       0.00       0.03       0.00      12.96       0.00      12.96        0.00     0.00   0.847
  EZG_376865                15.30       0.00       0.03       0.00      12.96       0.00      12.96        0.00     0.00   0.847
  EZG_376308                15.30       0.00       0.03       0.00      13.01       0.00      13.01        0.00     0.00   0.851
  EZG_376309                15.30       0.00       0.03       0.00      12.95       0.00      12.95        0.00     0.00   0.846
  EZG_375538                15.30       0.00       0.03       0.00      13.03       0.00      13.03        0.00     0.00   0.851
  EZG_376351                15.30       0.00       0.03       0.00      13.00       0.00      13.00        0.00     0.00   0.850
  EZG_374015                15.30       0.00       0.03       0.00      12.53       0.00      12.53        0.03     0.05   0.819
  EZG_374139                15.30       0.00       0.03       0.00      12.93       0.00      12.93        0.00     0.00   0.845
  EZG_374323                15.30       0.00       0.03       0.00      12.99       0.00      12.99        0.00     0.00   0.849
  EZG_376604                15.30       0.00       0.03       0.00      13.00       0.00      13.00        0.00     0.00   0.850
  EZG_376605                15.30       0.00       0.03       0.00      13.00       0.00      13.00        0.00     0.00   0.850
  EZG_376357                15.30       0.00       0.03       0.00      13.03       0.00      13.03        0.00     0.00   0.851
  EZG_374386                15.30       0.00       0.03       0.00      13.02       0.00      13.02        0.00     0.00   0.851
  EZG_376359                15.30       0.00       0.03       0.00      12.97       0.00      12.97        0.00     0.00   0.847
  EZG_376609                15.30       0.00       0.03       0.00      12.97       0.00      12.97        0.00     0.00   0.847
  EZG_375782                15.30       0.00       0.03       0.00      12.86       0.00      12.86        0.00     0.00   0.841
  EZG_376362                15.30       0.00       0.03       0.00      12.94       0.00      12.94        0.00     0.00   0.846
  EZG_376363                15.30       0.00       0.03       0.00      12.98       0.00      12.98        0.00     0.00   0.849
  EZG_376613                15.30       0.00       0.03       0.00      12.94       0.00      12.94        0.00     0.00   0.846
  EZG_374395                15.30       0.00       0.03       0.00      13.02       0.00      13.02        0.00     0.00   0.851
  EZG_375567                15.30       0.00       0.03       0.00      13.00       0.00      13.00        0.00     0.00   0.850
  EZG_375508                15.30       0.00       0.03       0.00      13.00       0.00      13.00        0.00     0.00   0.850
  EZG_376368                15.30       0.00       0.03       0.00      13.00       0.00      13.00        0.00     0.00   0.850
  EZG_374409                15.30       0.00       0.03       0.00      13.02       0.00      13.02        0.00     0.00   0.851
  EZG_376887                15.30       0.00       0.03       0.00      12.97       0.00      12.97        0.00     0.00   0.848
  EZG_376371                15.30       0.00       0.03       0.00      12.97       0.00      12.97        0.00     0.00   0.848
  EZG_376010                15.30       0.00       0.03       0.00      12.99       0.00      12.99        0.00     0.00   0.849
  EZG_374414                15.30       0.00       0.03       0.00      12.98       0.00      12.98        0.00     0.00   0.849
  EZG_377099                15.30       0.00       0.03       0.00      12.98       0.00      12.98        0.00     0.00   0.848
  EZG_376892                15.30       0.00       0.03       0.00      12.97       0.00      12.97        0.00     0.00   0.848
  EZG_376866                15.30       0.00       0.03       0.00      12.91       0.00      12.91        0.00     0.00   0.844
  EZG_375565                15.30       0.00       0.03       0.00      13.00       0.00      13.00        0.00     0.00   0.849
  EZG_374419                15.30       0.00       0.03       0.00      12.99       0.00      12.99        0.00     0.00   0.849
  EZG_375744                15.30       0.00       0.03       0.00      12.94       0.00      12.94        0.00     0.00   0.846
  EZG_374252                15.30       0.00       0.03       0.00      12.96       0.00      12.96        0.00     0.00   0.847
  EZG_376838                15.30       0.00       0.03       0.00      12.95       0.00      12.95        0.00     0.00   0.847
  EZG_374526                15.30       0.00       0.03       0.00      12.79       0.00      12.79        0.00     0.01   0.836
  EZG_376061                15.30       0.00       0.03       0.00      12.99       0.00      12.99        0.00     0.00   0.849
  EZG_376022                15.30       0.00       0.03       0.00      12.96       0.00      12.96        0.00     0.00   0.847
  EZG_376023                15.30       0.00       0.03       0.00      12.99       0.00      12.99        0.00     0.00   0.849
  EZG_375534                15.30       0.00       0.03       0.00      12.95       0.00      12.95        0.00     0.00   0.846
  EZG_374133                15.30       0.00       0.03       0.00      12.91       0.00      12.91        0.00     0.00   0.844
  EZG_375740                15.30       0.00       0.03       0.00      12.98       0.00      12.98        0.00     0.00   0.848
  EZG_376321                15.30       0.00       0.03       0.00      13.03       0.00      13.03        0.00     0.00   0.852
  EZG_376867                15.30       0.00       0.03       0.00      12.99       0.00      12.99        0.00     0.00   0.849
  EZG_375539                15.30       0.00       0.03       0.00      13.03       0.00      13.03        0.00     0.00   0.852
  EZG_376882                15.30       0.00       0.03       0.00      12.96       0.00      12.96        0.00     0.00   0.847
  EZG_376378                15.30       0.00       0.03       0.00      13.02       0.00      13.02        0.00     0.00   0.851
  EZG_376032                15.30       0.00       0.03       0.00      12.96       0.00      12.96        0.00     0.00   0.847
  EZG_376885                15.30       0.00       0.03       0.00      12.95       0.00      12.95        0.00     0.00   0.846
  EZG_375629                15.30       0.00       0.03       0.00      12.96       0.00      12.96        0.00     0.00   0.847
  EZG_376606                15.30       0.00       0.03       0.00      12.99       0.00      12.99        0.00     0.00   0.849
  EZG_376888                15.30       0.00       0.03       0.00      12.91       0.00      12.91        0.00     0.00   0.844
  EZG_375632                15.30       0.00       0.03       0.00      13.02       0.00      13.02        0.00     0.00   0.851
  EZG_375633                15.30       0.00       0.03       0.00      12.79       0.00      12.79        0.00     0.01   0.836
  EZG_375634                15.30       0.00       0.03       0.00      13.01       0.00      13.01        0.00     0.00   0.850
  EZG_376319                15.30       0.00       0.03       0.00      12.90       0.00      12.90        0.00     0.00   0.843
  EZG_376322                15.30       0.00       0.03       0.00      13.03       0.00      13.03        0.00     0.00   0.852
  EZG_376323                15.30       0.00       0.03       0.00      13.03       0.00      13.03        0.00     0.00   0.852
  EZG_374495                15.30       0.00       0.03       0.00      12.99       0.00      12.99        0.00     0.00   0.849
  EZG_374251                15.30       0.00       0.03       0.00      12.96       0.00      12.96        0.00     0.00   0.847
  EZG_376312                15.30       0.00       0.03       0.00      13.03       0.00      13.03        0.00     0.00   0.851
  EZG_374322                15.30       0.00       0.03       0.00      13.00       0.00      13.00        0.00     0.00   0.850
  EZG_376886                15.30       0.00       0.03       0.00      12.95       0.00      12.95        0.00     0.00   0.846
  EZG_375510                15.30       0.00       0.03       0.00      12.99       0.00      12.99        0.00     0.00   0.849
  EZG_375630                15.30       0.00       0.03       0.00      12.89       0.00      12.89        0.00     0.00   0.842
  EZG_376889                15.30       0.00       0.03       0.00      12.91       0.00      12.91        0.00     0.00   0.844
  EZG_376372                15.30       0.00       0.03       0.00      13.01       0.00      13.01        0.00     0.00   0.850
  EZG_376891                15.30       0.00       0.03       0.00      12.91       0.00      12.91        0.00     0.00   0.844
  EZG_376011                15.30       0.00       0.03       0.00      12.99       0.00      12.99        0.00     0.00   0.849
  EZG_376985                15.30       0.00       0.03       0.00      13.01       0.00      13.01        0.00     0.00   0.850
  EZG_375684                15.30       0.00       0.03       0.00      12.98       0.00      12.98        0.00     0.00   0.848
  EZG_375579                15.30       0.00       0.03       0.00      12.93       0.00      12.93        0.00     0.00   0.845
  EZG_376337                15.30       0.00       0.03       0.00      12.91       0.00      12.91        0.00     0.00   0.844
  EZG_376868                15.30       0.00       0.03       0.00      12.80       0.00      12.80        0.00     0.01   0.836
  EZG_376352                15.30       0.00       0.03       0.00      12.97       0.00      12.97        0.00     0.00   0.848
  EZG_372402                15.30       0.00       0.03       0.00      12.59       0.00      12.59        0.02     0.04   0.823
  EZG_375583                15.30       0.00       0.03       0.00      13.02       0.00      13.02        0.00     0.00   0.851
  EZG_376870                15.30       0.00       0.03       0.00      12.87       0.00      12.87        0.00     0.00   0.841
  EZG_374313                15.30       0.00       0.03       0.00      12.89       0.00      12.89        0.00     0.00   0.842
  EZG_376843                15.30       0.00       0.03       0.00      12.98       0.00      12.98        0.00     0.00   0.848
  EZG_375535                15.30       0.00       0.03       0.00      12.95       0.00      12.95        0.00     0.00   0.846
  EZG_376028                15.30       0.00       0.03       0.00      12.99       0.00      12.99        0.00     0.00   0.849
  EZG_375582                15.30       0.00       0.03       0.00      13.03       0.00      13.03        0.00     0.00   0.852
  EZG_376320                15.30       0.00       0.03       0.00      12.99       0.00      12.99        0.00     0.00   0.849
  EZG_377016                15.30       0.00       0.03       0.00      12.92       0.00      12.92        0.00     0.00   0.845
  EZG_377017                15.30       0.00       0.03       0.00      12.96       0.00      12.96        0.00     0.00   0.847
  EZG_443401                15.30       0.00       0.03       0.00      13.02       0.00      13.02        0.00     0.00   0.851
  EZG_376370                15.30       0.00       0.03       0.00      13.03       0.00      13.03        0.00     0.00   0.852
  EZG_376981                15.30       0.00       0.03       0.00      13.01       0.00      13.01        0.00     0.00   0.850
  EZG_376318                15.30       0.00       0.03       0.00      13.02       0.00      13.02        0.00     0.00   0.851
  EZG_376031                15.30       0.00       0.03       0.00      12.99       0.00      12.99        0.00     0.00   0.849
  EZG_376315                15.30       0.00       0.03       0.00      12.93       0.00      12.93        0.00     0.00   0.845
  EZG_376353                15.30       0.00       0.03       0.00      12.97       0.00      12.97        0.00     0.00   0.848
  EZG_376869                15.30       0.00       0.03       0.00      12.86       0.00      12.86        0.00     0.00   0.841
  EZG_377096                15.30       0.00       0.03       0.00      12.92       0.00      12.92        0.00     0.00   0.845
  EZG_373034                15.30       0.00       0.03       0.00      15.09       0.00      15.09        0.00     0.01   0.986
  EZG_373153                15.30       0.00       0.03       0.00      15.10       0.00      15.10        0.00     0.00   0.987
  EZG_376019                15.30       0.00       0.03       0.00      15.16       0.00      15.16        0.00     0.00   0.991
  EZG_373165                15.30       0.00       0.03       0.00      15.11       0.00      15.11        0.00     0.00   0.987
  EZG_373054                15.30       0.00       0.03       0.00      15.08       0.00      15.08        0.00     0.01   0.986
  EZG_376014                15.30       0.00       0.03       0.00      15.16       0.00      15.16        0.00     0.00   0.991
  EZG_373168                15.30       0.00       0.03       0.00      15.11       0.00      15.11        0.00     0.00   0.987
  EZG_373103                15.30       0.00       0.03       0.00      15.02       0.00      15.02        0.01     0.01   0.981
  EZG_372949                15.30       0.00       0.03       0.00      15.02       0.00      15.02        0.01     0.01   0.981
  EZG_375507                15.30       0.00       0.03       0.00      15.16       0.00      15.16        0.00     0.00   0.991
  EZG_373058                15.30       0.00       0.03       0.00      15.08       0.00      15.08        0.00     0.01   0.986
  EZG_372962                15.30       0.00       0.03       0.00      15.00       0.00      15.00        0.01     0.02   0.980
  EZG_373150                15.30       0.00       0.03       0.00      15.17       0.00      15.17        0.00     0.00   0.991
  EZG_373065                15.30       0.00       0.03       0.00      15.22       0.00      15.22        0.00     0.00   0.995
  EZG_372418                15.30       0.00       0.03       0.00      15.08       0.00      15.08        0.00     0.01   0.986
  EZG_372420                15.30       0.00       0.03       0.00      15.09       0.00      15.09        0.00     0.01   0.986
  EZG_372422                15.30       0.00       0.03       0.00      15.19       0.00      15.19        0.00     0.00   0.993
  EZG_372947                15.30       0.00       0.03       0.00      15.09       0.00      15.09        0.00     0.01   0.986
  EZG_374560                15.30       0.00       0.03       0.00      15.06       0.00      15.06        0.00     0.01   0.985
  EZG_372963                15.30       0.00       0.03       0.00      15.17       0.00      15.17        0.00     0.00   0.991
  EZG_372943                15.30       0.00       0.03       0.00      15.09       0.00      15.09        0.00     0.01   0.986
  EZG_373144                15.30       0.00       0.03       0.00      15.09       0.00      15.09        0.00     0.00   0.987
  EZG_376020                15.30       0.00       0.03       0.00      15.14       0.00      15.14        0.00     0.00   0.990
  EZG_372953                15.30       0.00       0.03       0.00      15.07       0.00      15.07        0.00     0.01   0.985
  EZG_374565                15.30       0.00       0.03       0.00      15.08       0.00      15.08        0.00     0.01   0.986
  EZG_373161                15.30       0.00       0.03       0.00      15.03       0.00      15.03        0.01     0.01   0.983
  EZG_373149                15.30       0.00       0.03       0.00      15.09       0.00      15.09        0.00     0.00   0.987
  EZG_372942                15.30       0.00       0.03       0.00      15.03       0.00      15.03        0.01     0.01   0.982
  EZG_373064                15.30       0.00       0.03       0.00      15.18       0.00      15.18        0.00     0.00   0.992
  EZG_374571                15.30       0.00       0.03       0.00      15.12       0.00      15.12        0.00     0.00   0.988
  EZG_375742                15.30       0.00       0.03       0.00      15.16       0.00      15.16        0.00     0.00   0.991
  EZG_376029                15.30       0.00       0.03       0.00      15.12       0.00      15.12        0.00     0.00   0.988
  EZG_375506                15.30       0.00       0.03       0.00      15.16       0.00      15.16        0.00     0.00   0.991
  EZG_376018                15.30       0.00       0.03       0.00      15.16       0.00      15.16        0.00     0.00   0.991
  EZG_374427                15.30       0.00       0.03       0.00      15.04       0.00      15.04        0.01     0.01   0.983
  EZG_373056                15.30       0.00       0.03       0.00      15.20       0.00      15.20        0.00     0.00   0.994
  EZG_373057                15.30       0.00       0.03       0.00      15.10       0.00      15.10        0.00     0.00   0.987
  EZG_373146                15.30       0.00       0.03       0.00      15.13       0.00      15.13        0.00     0.00   0.989
  EZG_373000                15.30       0.00       0.03       0.00      15.09       0.00      15.09        0.00     0.01   0.986
  EZG_372956                15.30       0.00       0.03       0.00      15.07       0.00      15.07        0.00     0.01   0.985
  EZG_373017                15.30       0.00       0.03       0.00      15.19       0.00      15.19        0.00     0.00   0.993
  EZG_373030                15.30       0.00       0.03       0.00      15.16       0.00      15.16        0.00     0.00   0.991
  EZG_375503                15.30       0.00       0.03       0.00      15.15       0.00      15.15        0.00     0.00   0.990
  EZG_373032                15.30       0.00       0.03       0.00      15.19       0.00      15.19        0.00     0.00   0.993
  EZG_375505                15.30       0.00       0.03       0.00      15.17       0.00      15.17        0.00     0.00   0.992
  EZG_373062                15.30       0.00       0.03       0.00      15.10       0.00      15.10        0.00     0.00   0.987
  EZG_373140                15.30       0.00       0.03       0.00      15.13       0.00      15.13        0.00     0.00   0.989
  EZG_372967                15.30       0.00       0.03       0.00      14.92       0.00      14.92        0.02     0.03   0.975
  EZG_372965                15.30       0.00       0.03       0.00      15.19       0.00      15.19        0.00     0.00   0.993
  EZG_373138                15.30       0.00       0.03       0.00      15.12       0.00      15.12        0.00     0.00   0.988
  EZG_373163                15.30       0.00       0.03       0.00      15.14       0.00      15.14        0.00     0.00   0.990
  EZG_373160                15.30       0.00       0.03       0.00      15.15       0.00      15.15        0.00     0.00   0.990
  EZG_373060                15.30       0.00       0.03       0.00      15.11       0.00      15.11        0.00     0.00   0.988
  EZG_373133                15.30       0.00       0.03       0.00      15.09       0.00      15.09        0.00     0.00   0.986
  EZG_373136                15.30       0.00       0.03       0.00      15.12       0.00      15.12        0.00     0.00   0.988
  EZG_372960                15.30       0.00       0.03       0.00      15.01       0.00      15.01        0.01     0.01   0.981
  EZG_374568                15.30       0.00       0.03       0.00      15.09       0.00      15.09        0.00     0.00   0.987
  EZG_373055                15.30       0.00       0.03       0.00      15.12       0.00      15.12        0.00     0.00   0.988
  EZG_373131                15.30       0.00       0.03       0.00      15.07       0.00      15.07        0.00     0.01   0.985
  EZG_376338                15.30       0.00       0.02       3.96       5.31       4.51       9.03        0.00     0.00   0.590
  EZG_376062                15.30       0.00       0.03       3.94       5.33       4.54       9.07        0.00     0.00   0.593
  EZG_374346                15.30       0.00       0.03       4.13       5.18       4.01       8.41        0.01     0.01   0.550
  EZG_376982                15.30       0.00       0.03       4.10       5.24       4.35       8.81        0.00     0.00   0.576
  EZG_376342                15.30       0.00       0.03       4.00       5.28       4.47       8.96        0.00     0.00   0.585
  EZG_376909                15.30       0.00       0.03       3.91       5.37       4.59       9.15        0.00     0.00   0.598
  EZG_376339                15.30       0.00       0.03       3.99       5.29       4.48       8.98        0.00     0.00   0.587
  EZG_376340                15.30       0.00       0.03       3.99       5.29       4.48       8.98        0.00     0.00   0.587
  EZG_372144                15.30       0.00       0.03       8.25       0.00       6.35       6.35        0.00     0.00   0.415
  EZG_375788                15.30       0.00       0.02       7.86       0.00       7.48       7.48        0.00     0.00   0.489
  EZG_371817                15.30       0.00       0.02       7.93       0.00       7.42       7.42        0.00     0.00   0.485
  EZG_372142                15.30       0.00       0.03       8.15       0.00       7.17       7.17        0.00     0.00   0.468
  EZG_372153                15.30       0.00       0.03       8.25       0.00       5.78       5.78        0.00     0.00   0.378
  EZG_372136                15.30       0.00       0.02       7.70       0.00       7.68       7.68        0.00     0.00   0.502
  EZG_371816                15.30       0.00       0.03       8.25       0.00       6.63       6.63        0.00     0.00   0.434
  EZG_372246                15.30       0.00       0.03       8.25       0.00       6.49       6.49        0.00     0.00   0.424
  EZG_372247                15.30       0.00       0.02       7.94       0.00       7.40       7.40        0.00     0.00   0.483
  EZG_372130                15.30       0.00       0.03       8.25       0.00       4.69       4.69        0.01     0.01   0.306
  EZG_374492                15.30       0.00       0.02       7.81       0.00       7.55       7.55        0.00     0.00   0.493
  EZG_372148                15.30       0.00       0.03       8.25       0.00       6.23       6.23        0.00     0.00   0.407
  EZG_374232                15.30       0.00       0.02       7.74       0.00       7.63       7.63        0.00     0.00   0.499
  EZG_372146                15.30       0.00       0.03       8.25       0.00       5.83       5.83        0.00     0.00   0.381
  EZG_372152                15.30       0.00       0.02       7.95       0.00       7.39       7.39        0.00     0.00   0.483
  EZG_372287                15.30       0.00       0.03       8.25       0.00       6.64       6.64        0.00     0.00   0.434
  EZG_372154                15.30       0.00       0.03       8.25       0.00       7.00       7.00        0.00     0.00   0.457
  EZG_374292                15.30       0.00       0.02       8.03       0.00       7.30       7.30        0.00     0.00   0.477
  EZG_372138                15.30       0.00       0.03       8.25       0.00       6.52       6.52        0.00     0.00   0.426
  EZG_372315                15.30       0.00       0.03       8.25       0.00       6.27       6.27        0.00     0.00   0.410
  EZG_372316                15.30       0.00       0.03       8.25       0.00       6.66       6.66        0.00     0.00   0.436
  EZG_372137                15.30       0.00       0.03       8.25       0.00       5.23       5.23        0.01     0.01   0.342
  EZG_372320                15.30       0.00       0.03       8.25       0.00       6.75       6.75        0.00     0.00   0.441
  EZG_371815                15.30       0.00       0.03       8.25       0.00       5.71       5.71        0.00     0.01   0.373
  EZG_375550                15.30       0.00       0.02       7.90       0.00       7.44       7.44        0.00     0.00   0.486
  EZG_372319                15.30       0.00       0.03       8.25       0.00       6.66       6.66        0.00     0.00   0.435
  EZG_372149                15.30       0.00       0.03       8.25       0.00       6.21       6.21        0.00     0.00   0.406
  EZG_372129                15.30       0.00       0.03       8.25       0.00       6.20       6.20        0.00     0.00   0.405
  EZG_376057                15.30       0.00       0.02       7.89       0.00       7.45       7.45        0.00     0.00   0.487
  EZG_375555                15.30       0.00       0.02       7.92       0.00       7.42       7.42        0.00     0.00   0.485
  EZG_374296                15.30       0.00       0.02       7.92       0.00       7.42       7.42        0.00     0.00   0.485
  EZG_372245                15.30       0.00       0.03       8.25       0.00       6.51       6.51        0.00     0.00   0.426
  EZG_372330                15.30       0.00       0.03       8.25       0.00       5.91       5.91        0.00     0.00   0.386
  EZG_372331                15.30       0.00       0.03       8.25       0.00       5.54       5.54        0.01     0.01   0.362
  EZG_372332                15.30       0.00       0.03       8.25       0.00       7.07       7.07        0.00     0.00   0.462
  EZG_373207                15.30       0.00       0.03       8.25       0.00       6.25       6.25        0.00     0.00   0.409
  EZG_372321                15.30       0.00       0.03       8.25       0.00       6.88       6.88        0.00     0.00   0.450
  EZG_374120                15.30       0.00       0.02       7.63       0.00       7.77       7.77        0.00     0.00   0.508
  EZG_374452                15.30       0.00       0.03       8.04       0.00       7.29       7.29        0.00     0.00   0.477
  EZG_372361                15.30       0.00       0.03       8.25       0.00       6.57       6.57        0.00     0.00   0.429
[...]
  R0019468             JUNCTION     0.022    0.127     0  01:15      0.0105       0.105       0.084
  R0019831             JUNCTION     0.162    0.162     0  01:15      0.0888      0.0888       0.127
  R0019825             JUNCTION     0.074    0.174     0  01:15      0.0359       0.118       0.269
  R0019843             JUNCTION     0.000    1.509     0  01:16           0        1.04       0.044
  R0019368             JUNCTION     0.000    1.518     0  01:16           0        1.04       0.122
  R0019369             JUNCTION     0.000    1.532     0  01:16           0        1.04       0.050
  R0019370             JUNCTION     0.000    1.540     0  01:16           0        1.04       0.067
  R0019345             JUNCTION     0.000    0.090     0  01:15           0      0.0478       0.204
  R0019346             JUNCTION     0.009    0.167     0  01:15     0.00417      0.0942       0.117
  R0043600             JUNCTION     0.000    0.179     0  01:15           0       0.118      -0.034
  R0019203             JUNCTION     0.025    0.485     0  01:15      0.0115       0.299       0.171
  R0043594             JUNCTION     0.162    0.179     0  01:15      0.0911       0.101      -0.031
  R0021458             JUNCTION     0.071    0.230     0  01:15      0.0356       0.136       0.295
  R0019202             JUNCTION     0.028    0.289     0  01:15       0.013       0.169       0.018
  R0019373             JUNCTION     0.041    0.101     0  01:15      0.0241      0.0348      -0.136
  R0019254             JUNCTION     0.042    0.092     0  01:15      0.0201      0.0479       0.217
  R0019716             JUNCTION     0.107    0.933     0  01:15      0.0544       0.594       0.042
  R0019946             JUNCTION     0.000    0.940     0  01:16           0       0.594       0.228
  R0013935             JUNCTION     0.046    0.046     0  01:15      0.0239      0.0239      -0.146
  R0019939             JUNCTION     0.018    0.061     0  01:15     0.00859      0.0325      -0.062
  R0019944             JUNCTION     0.041    1.166     0  01:16       0.022        0.78       0.042
  R0043703             JUNCTION     0.044    0.979     0  01:16      0.0227       0.615       0.094
  R0019945             JUNCTION     0.000    1.145     0  01:16           0       0.759       0.040
  R0039621             JUNCTION     0.000    0.008     0  01:13           0    0.000956       1.422
  R0019838             JUNCTION     0.086    0.086     0  01:15      0.0465      0.0475       0.184
  R0039606             JUNCTION     0.000    0.190     0  01:15           0       0.136       0.317
  R0019204             JUNCTION     0.000    0.000     0  00:00           0           0       0.000 ltr
  R0019205             JUNCTION     0.000    0.000     0  00:00           0           0       0.000 ltr
  R0019849             JUNCTION     0.000    0.185     0  01:14           0       0.144       0.112
  R0019371             JUNCTION     0.000    0.000     0  00:00           0           0       0.000 ltr
  R0019718             JUNCTION     0.093    0.545     0  01:15      0.0463       0.344      -2.267
  R0021442             JUNCTION     0.101    0.161     0  01:15      0.0554       0.105       0.226
  R0019247             JUNCTION     0.027    0.178     0  01:15      0.0139       0.118       0.142
  R0019719             JUNCTION     0.046    0.204     0  01:15      0.0255        0.12       1.175
  R0019767             JUNCTION     0.000    1.551     0  01:16           0        1.04       0.057
  R0019768             JUNCTION     0.000    1.560     0  01:17           0        1.04       0.056
  R0021453             JUNCTION     0.021    0.021     0  01:15     0.00962     0.00962      -0.625
  R0019839             JUNCTION     0.108    0.181     0  01:15      0.0532      0.0996       0.081
  R0019717             JUNCTION     0.143    0.844     0  01:15      0.0734       0.544       0.758
  R0019252             JUNCTION     0.054    0.054     0  01:15      0.0278      0.0278      -0.132
  R0019721             JUNCTION     0.007    0.080     0  01:15     0.00309      0.0424       0.237
  R0019942             JUNCTION     0.000    0.141     0  01:13           0       0.111      -0.112
  R0019206             JUNCTION     0.000    0.000     0  00:00           0           0       0.000 ltr
  R0019840             JUNCTION     0.000    0.303     0  01:15           0       0.205       0.056
  R0043702             JUNCTION     0.097    0.389     0  01:15      0.0583       0.263       0.081
  R0019723             JUNCTION     0.074    0.076     0  01:15      0.0382      0.0394      -0.057
  R0019724             JUNCTION     0.002    0.004     0  01:11     0.00108     0.00114       0.352
  R0021433             JUNCTION     0.069    0.069     0  01:15      0.0369      0.0369      -0.029
  R0021435             JUNCTION     0.019    0.075     0  01:14      0.0123      0.0492      -0.110
  R0019769             OUTFALL      0.000    1.567     0  01:17           0        1.04       0.000
  
  
  **********************
  Node Surcharge Summary
  **********************
  
  Surcharging occurs when water rises above the top of the highest conduit.
  ---------------------------------------------------------------------
                                               Max. Height   Min. Depth
                                   Hours       Above Crown    Below Rim
  Node                 Type      Surcharged         Meters       Meters
  ---------------------------------------------------------------------
  R0019466             JUNCTION        0.19          0.912        1.598
  R0019468             JUNCTION        0.15          0.547        1.883
  R0019831             JUNCTION        0.14          1.360        0.000
  R0019825             JUNCTION        0.17          1.200        0.000
  R0019345             JUNCTION        0.03          0.083        1.667
  R0043600             JUNCTION        0.03          0.051        2.529
  R0019373             JUNCTION        0.08          0.540        1.960
  R0019254             JUNCTION        0.05          0.309        1.521
  R0013935             JUNCTION        0.09          0.439        0.881
  R0019939             JUNCTION        0.16          0.608        1.012
  R0019849             JUNCTION        0.18          0.579        1.351
  R0021442             JUNCTION        0.16          1.488        0.262
  R0019247             JUNCTION        0.06          0.343        1.517
  R0019252             JUNCTION        0.03          0.315        1.325
  R0019942             JUNCTION        0.15          0.635        1.015
  R0021433             JUNCTION        0.09          1.517        0.333
  R0021435             JUNCTION        0.13          1.565        0.245
  
  
  *********************
  Node Flooding Summary
  *********************
  
  Flooding refers to all water that overflows a node, whether it ponds or not.
  --------------------------------------------------------------------------
                                                             Total   Maximum
                                 Maximum   Time of Max       Flood    Ponded
                        Hours       Rate    Occurrence      Volume     Depth
  Node                 Flooded       CMS   days hr:min    10^6 ltr    Meters
  --------------------------------------------------------------------------
  R0019831                0.05     0.061      0  01:15       0.007     0.000
  R0019825                0.06     0.048      0  01:15       0.006     0.000
  
  
  ***********************
  Outfall Loading Summary
  ***********************
  
  -----------------------------------------------------------
                         Flow       Avg       Max       Total
                         Freq      Flow      Flow      Volume
  Outfall Node           Pcnt       CMS       CMS    10^6 ltr
  -----------------------------------------------------------
  R0019769              41.92     0.344     1.567       1.038
  -----------------------------------------------------------
  System                41.92     0.344     1.567       1.038
  
  
  ********************
  Link Flow Summary
  ********************
  
  -----------------------------------------------------------------------------
                                 Maximum  Time of Max   Maximum    Max/    Max/
                                  |Flow|   Occurrence   |Veloc|    Full    Full
  Link                 Type          CMS  days hr:min     m/sec    Flow   Depth
  -----------------------------------------------------------------------------
  H0014431             CONDUIT     0.106     0  01:15      1.50    1.96    1.00
  H0014433             CONDUIT     0.100     0  01:16      1.42    1.28    1.00
  H0014352             CONDUIT     1.518     0  01:16      3.16    0.62    0.71
  H0014373             CONDUIT     1.540     0  01:16      4.05    0.71    0.58
  H0017981             CONDUIT     0.090     0  01:15      1.27    2.54    1.00
  H0017755             CONDUIT     0.179     0  01:15      1.42    1.45    1.00
  H0017791             CONDUIT     0.160     0  01:15      0.75    0.23    0.39
  H0017357             CONDUIT     0.100     0  01:15      1.41    1.60    1.00
  H0018216             CONDUIT     0.090     0  01:15      1.27    1.64    1.00
  H0016792             CONDUIT     0.940     0  01:16      2.05    0.54    0.68
  H0019507             CONDUIT     0.044     0  01:15      0.72    0.61    1.00
  H0019998             CONDUIT     1.172     0  01:16      3.44    0.47    0.54
  H0019576             CONDUIT     0.986     0  01:16      2.41    0.66    0.61
  H0020087             CONDUIT     0.008     0  01:13      0.22    0.03    0.43
  H0020211             CONDUIT     0.955     0  01:16      2.04    2.38    0.70
  H0018982             CONDUIT     0.190     0  01:15      0.86    0.31    0.46
  H0018753             CONDUIT     0.060     0  01:15      0.85    0.85    1.00
  H0018845             CONDUIT     0.000     0  00:00      0.00    0.00    0.00
  H0018863             CONDUIT     0.060     0  01:15      0.85    1.40    1.00
  H0019156             CONDUIT     0.000     0  00:00      0.00    0.00    0.00
  H0018929             CONDUIT     0.488     0  01:16      1.31    0.42    0.58
  H0018440             CONDUIT     0.155     0  01:15      2.20    2.78    1.00
  H0018456             CONDUIT     0.166     0  01:15      1.45    1.01    0.86
  H0018968             CONDUIT     1.560     0  01:17      4.69    0.60    0.52
  H0022036             CONDUIT     0.020     0  01:14      0.29    0.02    0.21
  H0021806             CONDUIT     0.179     0  01:15      1.42    1.58    1.00
  H0022111             CONDUIT     0.076     0  01:15      0.76    0.54    0.52
  H0021440             CONDUIT     0.858     0  01:15      2.41    0.55    0.55
  H0021704             CONDUIT     0.563     0  01:16      1.59    1.07    0.56
  H0020521             CONDUIT     0.051     0  01:15      0.72    1.03    1.00
  H0020755             CONDUIT     0.072     0  01:16      0.72    0.79    0.81
  H0020530             CONDUIT     1.532     0  01:16      3.11    1.31    0.73
  H0020618             CONDUIT     1.144     0  01:16      3.17    0.71    0.55
  H0021163             CONDUIT     0.141     0  01:13      2.00    2.36    1.00
  H0020497             CONDUIT     0.000     0  00:00      0.00    0.00    0.89
  H0024325             CONDUIT     0.177     0  01:15      1.79    0.53    0.50
  H0023585             CONDUIT     0.388     0  01:15      2.52    0.89    0.74
  H0024098             CONDUIT     0.183     0  01:14      2.59    2.14    1.00
  H0024235             CONDUIT     0.204     0  01:15      1.40    0.83    0.70
  H0024282             CONDUIT     0.000     0  00:00      0.00    0.00    0.00
  H0024308             CONDUIT     1.567     0  01:17      5.25    0.46    0.48
  H0024498             CONDUIT     0.126     0  01:15      1.79    1.96    1.00
  H0026990             CONDUIT     0.073     0  01:15      0.94    0.56    0.65
  H0041650             CONDUIT     0.291     0  01:15      0.98    0.34    0.51
  H0041011             CONDUIT     0.145     0  01:13      2.06    1.44    1.00
  H0045103             CONDUIT     0.199     0  01:16      0.77    0.25    0.50
  H0045104             CONDUIT     1.551     0  01:16      4.35    0.55    0.55
  H0045105             CONDUIT     0.004     0  01:15      0.10    0.07    0.59
  H0045106             CONDUIT     0.303     0  01:15      2.40    0.41    0.61
  H0045107             CONDUIT     0.056     0  01:15      0.93    0.92    1.00
  H0045108             CONDUIT     0.077     0  01:16      1.08    1.38    1.00
  
  
  ***************************
  Flow Classification Summary
  ***************************
  
  -------------------------------------------------------------------------------------
                      Adjusted    ---------- Fraction of Time in Flow Class ---------- 
                       /Actual         Up    Down  Sub   Sup   Up    Down  Norm  Inlet 
  Conduit               Length    Dry  Dry   Dry   Crit  Crit  Crit  Crit  Ltd   Ctrl  
  -------------------------------------------------------------------------------------
  H0014431                1.00   0.54  0.00  0.00  0.46  0.00  0.00  0.00  0.20  0.00
  H0014433                1.00   0.54  0.00  0.00  0.46  0.00  0.00  0.00  0.35  0.00
  H0014352                1.00   0.54  0.00  0.00  0.00  0.45  0.00  0.00  0.35  0.00
  H0014373                1.00   0.55  0.00  0.00  0.01  0.44  0.00  0.00  0.05  0.00
  H0017981                1.00   0.56  0.00  0.00  0.02  0.00  0.00  0.41  0.00  0.00
  H0017755                1.00   0.58  0.00  0.00  0.06  0.00  0.00  0.36  0.00  0.00
  H0017791                1.00   0.58  0.00  0.00  0.42  0.00  0.00  0.00  0.30  0.00
  H0017357                1.00   0.54  0.38  0.00  0.00  0.00  0.08  0.00  0.00  0.00
  H0018216                1.00   0.55  0.00  0.00  0.42  0.03  0.00  0.00  0.35  0.00
  H0016792                1.00   0.54  0.00  0.00  0.36  0.10  0.00  0.00  0.30  0.00
  H0019507                1.00   0.54  0.00  0.00  0.45  0.01  0.00  0.00  0.35  0.00
  H0019998                1.00   0.54  0.00  0.00  0.00  0.46  0.00  0.00  0.36  0.00
  H0019576                1.00   0.54  0.00  0.00  0.05  0.41  0.00  0.00  0.27  0.00
  H0020087                1.00   0.58  0.02  0.00  0.40  0.00  0.00  0.00  0.28  0.00
  H0020211                1.00   0.54  0.00  0.00  0.46  0.00  0.00  0.00  0.02  0.00
  H0018982                1.00   0.58  0.00  0.00  0.42  0.00  0.00  0.00  0.00  0.00
  H0018753                1.00   0.54  0.00  0.00  0.46  0.00  0.00  0.00  0.36  0.00
  H0018845                1.00   1.00  0.00  0.00  0.00  0.00  0.00  0.00  0.00  0.00
  H0018863                1.00   0.54  0.00  0.00  0.46  0.00  0.00  0.00  0.18  0.00
  H0019156                1.00   1.00  0.00  0.00  0.00  0.00  0.00  0.00  0.00  0.00
  H0018929                1.00   0.54  0.03  0.00  0.42  0.00  0.00  0.00  0.30  0.00
  H0018440                1.00   0.58  0.00  0.00  0.42  0.01  0.00  0.00  0.20  0.00
  H0018456                1.00   0.54  0.01  0.00  0.44  0.00  0.00  0.00  0.31  0.00
  H0018968                1.00   0.56  0.00  0.00  0.00  0.43  0.00  0.00  0.02  0.00
  H0022036                1.00   0.58  0.00  0.00  0.39  0.00  0.00  0.04  0.34  0.00
  H0021806                1.00   0.58  0.00  0.00  0.41  0.02  0.00  0.00  0.17  0.00
  H0022111                1.00   0.58  0.00  0.00  0.42  0.00  0.00  0.00  0.00  0.00
  H0021440                1.00   0.54  0.00  0.00  0.01  0.45  0.00  0.00  0.36  0.00
  H0021704                1.00   0.54  0.00  0.00  0.06  0.00  0.00  0.40  0.00  0.00
  H0020521                1.00   0.54  0.00  0.00  0.44  0.02  0.00  0.00  0.36  0.00
  H0020755                1.00   0.55  0.00  0.00  0.45  0.00  0.00  0.00  0.33  0.00
  H0020530                1.00   0.55  0.00  0.00  0.02  0.43  0.00  0.00  0.20  0.00
  H0020618                1.00   0.54  0.00  0.00  0.03  0.42  0.00  0.00  0.33  0.00
  H0021163                1.00   0.54  0.00  0.00  0.33  0.13  0.00  0.00  0.00  0.00
  H0020497                1.20   0.54  0.46  0.00  0.00  0.00  0.00  0.00  0.00  0.00
  H0024325                1.00   0.55  0.03  0.00  0.12  0.31  0.00  0.00  0.38  0.00
  H0023585                1.00   0.54  0.00  0.00  0.00  0.00  0.00  0.46  0.00  0.00
  H0024098                1.00   0.55  0.00  0.00  0.41  0.04  0.00  0.00  0.25  0.00
  H0024235                1.00   0.54  0.00  0.00  0.04  0.00  0.00  0.41  0.02  0.00
  H0024282                1.00   1.00  0.00  0.00  0.00  0.00  0.00  0.00  0.00  0.00
  H0024308                1.00   0.57  0.00  0.00  0.00  0.43  0.00  0.00  0.28  0.00
  H0024498                1.00   0.54  0.00  0.00  0.00  0.00  0.00  0.46  0.00  0.00
  H0026990                1.00   0.54  0.00  0.00  0.43  0.03  0.00  0.00  0.39  0.00
  H0041650                1.00   0.58  0.00  0.00  0.42  0.00  0.00  0.00  0.16  0.00
  H0041011                1.00   0.55  0.00  0.00  0.15  0.31  0.00  0.00  0.19  0.00
  H0045103                1.00   0.58  0.00  0.00  0.42  0.00  0.00  0.00  0.14  0.00
  H0045104                1.00   0.56  0.00  0.00  0.00  0.44  0.00  0.00  0.36  0.00
  H0045105                1.00   0.54  0.04  0.00  0.42  0.00  0.00  0.00  0.33  0.00
  H0045106                1.00   0.54  0.01  0.00  0.03  0.43  0.00  0.00  0.37  0.00
  H0045107                1.00   0.58  0.00  0.00  0.41  0.02  0.00  0.00  0.33  0.00
  H0045108                1.00   0.58  0.00  0.00  0.42  0.00  0.00  0.00  0.32  0.00
  
  
  *************************
  Conduit Surcharge Summary
  *************************
  
  ----------------------------------------------------------------------------
                                                           Hours        Hours 
                         --------- Hours Full --------   Above Full   Capacity
  Conduit                Both Ends  Upstream  Dnstream   Normal Flow   Limited
  ----------------------------------------------------------------------------
  H0014431                    0.15      0.19      0.15      0.21         0.17
  H0014433                    0.14      0.14      0.17      0.09         0.09
  H0017981                    0.01      0.03      0.01      0.12         0.02
  H0017755                    0.01      0.03      0.01      0.07         0.02
  H0017357                    0.01      0.01      0.08      0.04         0.01
  H0018216                    0.03      0.05      0.03      0.08         0.04
  H0019507                    0.09      0.09      0.16      0.01         0.01
  H0020211                    0.01      0.01      0.01      0.13         0.01
  H0018753                    0.08      0.08      0.19      0.01         0.01
  H0018863                    0.16      0.16      0.18      0.04         0.04
  H0018440                    0.09      0.16      0.09      0.19         0.14
  H0018456                    0.01      0.01      0.01      0.01         0.01
  H0021806                    0.03      0.06      0.03      0.08         0.05
  H0021704                    0.01      0.01      0.01      0.02         0.01
  H0020521                    0.03      0.03      0.05      0.01         0.01
  H0020530                    0.01      0.01      0.01      0.05         0.01
  H0021163                    0.15      0.17      0.15      0.19         0.17
  H0024098                    0.17      0.18      0.19      0.18         0.16
  H0024498                    0.01      0.15      0.01      0.20         0.09
  H0041011                    0.15      0.15      0.18      0.10         0.10
  H0045107                    0.09      0.09      0.13      0.01         0.01
  H0045108                    0.13      0.13      0.16      0.06         0.06
  

  Analysis begun on:  Thu May 30 15:48:33 2024
  Analysis ended on:  Thu May 30 15:48:33 2024
  Total elapsed time: < 1 sec