
  EPA STORM WATER MANAGEMENT MODEL - VERSION 5.2 (Build 5.2.4)
  ------------------------------------------------------------

  Gievenbeck_e2_T100D90 
  
  ****************
  Analysis Options
  ****************
  Flow Units ............... CMS
  Process Models:
    Rainfall/Runoff ........ YES
    RDII ................... NO
    Snowmelt ............... NO
    Groundwater ............ NO
    Flow Routing ........... YES
    Ponding Allowed ........ NO
    Water Quality .......... NO
  Infiltration Method ...... HORTON
  Flow Routing Method ...... DYNWAVE
  Surcharge Method ......... SLOT
  Starting Date ............ 01/01/2024 00:00:00
  Ending Date .............. 01/01/2024 04:30:00
  Antecedent Dry Days ...... 0.0
  Report Time Step ......... 00:01:00
  Wet Time Step ............ 00:01:00
  Dry Time Step ............ 00:01:00
  Routing Time Step ........ 1.00 sec
  Variable Time Step ....... YES
  Maximum Trials ........... 8
  Number of Threads ........ 1
  Head Tolerance ........... 0.001500 m
  
  
  **************************        Volume         Depth
  Runoff Quantity Continuity     hectare-m            mm
  **************************     ---------       -------
  Total Precipitation ......         0.501        49.960
  Evaporation Loss .........         0.001         0.085
  Infiltration Loss ........         0.066         6.585
  Surface Runoff ...........         0.423        42.188
  Final Storage ............         0.012         1.217
  Continuity Error (%) .....        -0.231
  
  
  **************************        Volume        Volume
  Flow Routing Continuity        hectare-m      10^6 ltr
  **************************     ---------     ---------
  Dry Weather Inflow .......         0.000         0.000
  Wet Weather Inflow .......         0.423         4.230
  Groundwater Inflow .......         0.000         0.000
  RDII Inflow ..............         0.000         0.000
  External Inflow ..........         0.000         0.000
  External Outflow .........         0.329         3.293
  Flooding Loss ............         0.078         0.779
  Evaporation Loss .........         0.000         0.000
  Exfiltration Loss ........         0.000         0.000
  Initial Stored Volume ....         0.000         0.000
  Final Stored Volume ......         0.011         0.106
  Continuity Error (%) .....         1.214
  
  
  *************************
  Highest Continuity Errors
  *************************
  Node R0019205 (-11.18%)
  Node R0019206 (1.67%)
  Node RKB (1.60%)
  
  
  ***************************
  Time-Step Critical Elements
  ***************************
  None
  
  
  ********************************
  Highest Flow Instability Indexes
  ********************************
  Link W2 (26)
  Link W1 (19)
  Link 1 (7)
  Link H0020530 (4)
  
  
  *********************************
  Most Frequent Nonconverging Nodes
  *********************************
  Node W1 (12.27%)
  Node R0019769 (12.27%)
  Node 1 (12.24%)
  Node RKB (6.84%)
  Node R0019843 (0.02%)
  
  
  *************************
  Routing Time Step Summary
  *************************
  Minimum Time Step           :     0.50 sec
  Average Time Step           :     1.00 sec
  Maximum Time Step           :     1.00 sec
  % of Time in Steady State   :     0.00
  Average Iterations per Step :     2.91
  % of Steps Not Converging   :    12.27
  Time Step Frequencies       :
      1.000 -  0.871 sec      :    99.70 %
      0.871 -  0.758 sec      :     0.14 %
      0.758 -  0.660 sec      :     0.06 %
      0.660 -  0.574 sec      :     0.05 %
      0.574 -  0.500 sec      :     0.05 %
  
  
  ***************************
  Subcatchment Runoff Summary
  ***************************
  
  ------------------------------------------------------------------------------------------------------------------------------
                            Total      Total      Total      Total     Imperv       Perv      Total       Total     Peak  Runoff
                           Precip      Runon       Evap      Infil     Runoff     Runoff     Runoff      Runoff   Runoff   Coeff
  Subcatchment                 mm         mm         mm         mm         mm         mm         mm    10^6 ltr      CMS
  ------------------------------------------------------------------------------------------------------------------------------
  EZG_371814                49.96       0.00       0.12       0.00      47.84       0.00      47.84        0.00     0.00   0.958
  EZG_372414                49.96       0.00       0.12       0.00      47.72       0.00      47.72        0.02     0.03   0.955
  EZG_377174                49.96       0.00       0.12       0.00      47.84       0.00      47.84        0.00     0.00   0.958
  EZG_377175                49.96       0.00       0.12       0.00      47.77       0.00      47.77        0.01     0.01   0.956
  EZG_372123                49.96       0.00       0.12       0.00      47.65       0.00      47.65        0.07     0.10   0.954
  EZG_374545                49.96       0.00       0.12       0.00      47.69       0.00      47.69        0.04     0.06   0.954
  EZG_376311                49.96       0.00       0.12       0.00      47.81       0.00      47.81        0.00     0.00   0.957
  EZG_372345                49.96       0.00       0.12       0.00      47.61       0.00      47.61        0.14     0.20   0.953
  EZG_374016                49.96       0.00       0.12       0.00      47.71       0.00      47.71        0.03     0.04   0.955
  EZG_377168                49.96       0.00       0.12       0.00      47.78       0.00      47.78        0.01     0.01   0.956
  EZG_377169                49.96       0.00       0.12       0.00      47.68       0.00      47.68        0.05     0.07   0.954
  EZG_377170                49.96       0.00       0.12       0.00      47.82       0.00      47.82        0.00     0.00   0.957
  EZG_377171                49.96       0.00       0.12       0.00      47.71       0.00      47.71        0.03     0.04   0.955
  EZG_377172                49.96       0.00       0.12       0.00      47.77       0.00      47.77        0.01     0.01   0.956
  EZG_377173                49.96       0.00       0.12       0.00      47.76       0.00      47.76        0.01     0.02   0.956
  EZG_375500                49.96       0.00       0.12       0.00      47.82       0.00      47.82        0.00     0.00   0.957
  EZG_374010                49.96       0.00       0.12       0.00      47.76       0.00      47.76        0.01     0.02   0.956
  EZG_374347                49.96       0.00       0.12       0.00      47.83       0.00      47.83        0.00     0.00   0.957
  EZG_374348                49.96       0.00       0.12       0.00      47.81       0.00      47.81        0.00     0.01   0.957
  EZG_374361                49.96       0.00       0.12       0.00      47.82       0.00      47.82        0.00     0.00   0.957
  EZG_376910                49.96       0.00       0.12       0.00      47.84       0.00      47.84        0.00     0.00   0.958
  EZG_374363                49.96       0.00       0.12       0.00      47.83       0.00      47.83        0.00     0.00   0.957
  EZG_376872                49.96       0.00       0.12       0.00      47.84       0.00      47.84        0.00     0.00   0.958
  EZG_374365                49.96       0.00       0.12       0.00      47.82       0.00      47.82        0.00     0.00   0.957
  EZG_376905                49.96       0.00       0.12       0.00      47.84       0.00      47.84        0.00     0.00   0.957
  EZG_374579                49.96       0.00       0.12       0.00      47.81       0.00      47.81        0.00     0.01   0.957
  EZG_374022                49.96       0.00       0.12       0.00      47.73       0.00      47.73        0.02     0.03   0.955
  EZG_377176                49.96       0.00       0.12       0.00      47.77       0.00      47.77        0.01     0.01   0.956
  EZG_377177                49.96       0.00       0.12       0.00      47.70       0.00      47.70        0.04     0.05   0.955
  EZG_376911                49.96       0.00       0.12       0.00      47.84       0.00      47.84        0.00     0.00   0.957
  EZG_376906                49.96       0.00       0.12       0.00      47.84       0.00      47.84        0.00     0.00   0.957
  EZG_377114                49.96       0.00       0.10       4.26      35.13      13.55      43.41        0.00     0.00   0.869
  EZG_376013                49.96       0.00       0.12       0.00      48.12       0.00      48.12        0.00     0.00   0.963
  EZG_373155                49.96       0.00       0.12       0.00      47.97       0.00      47.97        0.05     0.08   0.960
  EZG_372951                49.96       0.00       0.12       0.00      48.10       0.00      48.10        0.01     0.01   0.963
  EZG_376036                49.96       0.00       0.12       0.00      48.14       0.00      48.14        0.00     0.00   0.963
  EZG_374570                49.96       0.00       0.12       0.00      48.14       0.00      48.14        0.00     0.00   0.964
  EZG_373154                49.96       0.00       0.12       0.00      47.99       0.00      47.99        0.04     0.06   0.961
  EZG_373066                49.96       0.00       0.12       0.00      48.09       0.00      48.09        0.01     0.01   0.963
  EZG_376376                49.96       0.00       0.12       0.00      48.14       0.00      48.14        0.00     0.00   0.964
  EZG_374561                49.96       0.00       0.12       0.00      48.05       0.00      48.05        0.02     0.02   0.962
  EZG_372961                49.96       0.00       0.12       0.00      48.13       0.00      48.13        0.00     0.00   0.963
  EZG_373033                49.96       0.00       0.12       0.00      48.14       0.00      48.14        0.00     0.00   0.964
  EZG_374425                49.96       0.00       0.12       0.00      48.12       0.00      48.12        0.00     0.00   0.963
  EZG_374509                49.96       0.00       0.12       0.00      48.14       0.00      48.14        0.00     0.00   0.964
  EZG_373080                49.96       0.00       0.12       0.00      48.14       0.00      48.14        0.00     0.00   0.964
  EZG_372269                49.96       0.00       0.12       0.00      48.14       0.00      48.14        0.00     0.00   0.963
  EZG_376051                49.96       0.00       0.12       0.00      48.13       0.00      48.13        0.00     0.00   0.963
  EZG_374513                49.96       0.00       0.12       0.00      48.14       0.00      48.14        0.00     0.00   0.964
  EZG_376335                49.96       0.00       0.12       0.00      48.11       0.00      48.11        0.00     0.01   0.963
  EZG_372925                49.96       0.00       0.12       0.00      47.98       0.00      47.98        0.05     0.07   0.960
  EZG_375518                49.96       0.00       0.12       0.00      48.13       0.00      48.13        0.00     0.00   0.963
  EZG_372924                49.96       0.00       0.12       0.00      47.95       0.00      47.95        0.08     0.11   0.960
  EZG_372948                49.96       0.00       0.12       0.00      48.13       0.00      48.13        0.00     0.00   0.963
  EZG_374529                49.96       0.00       0.12       0.00      48.14       0.00      48.14        0.00     0.00   0.963
  EZG_374429                49.96       0.00       0.12       0.00      48.12       0.00      48.12        0.00     0.00   0.963
  EZG_372954                49.96       0.00       0.12       0.00      48.12       0.00      48.12        0.00     0.00   0.963
  EZG_373159                49.96       0.00       0.12       0.00      48.14       0.00      48.14        0.00     0.00   0.964
  EZG_373134                49.96       0.00       0.12       0.00      48.14       0.00      48.14        0.00     0.00   0.964
  EZG_372933                49.96       0.00       0.12       0.00      48.13       0.00      48.13        0.00     0.00   0.963
  EZG_375741                49.96       0.00       0.12       0.00      48.14       0.00      48.14        0.00     0.00   0.963
  EZG_372955                49.96       0.00       0.12       0.00      48.12       0.00      48.12        0.00     0.00   0.963
  EZG_376997                49.96       0.00       0.12       0.00      48.14       0.00      48.14        0.00     0.00   0.963
  EZG_373079                49.96       0.00       0.12       0.00      48.14       0.00      48.14        0.00     0.00   0.964
  EZG_373119                49.96       0.00       0.12       0.00      48.09       0.00      48.09        0.01     0.01   0.963
  EZG_374480                49.96       0.00       0.12       0.00      48.12       0.00      48.12        0.00     0.00   0.963
  EZG_374563                49.96       0.00       0.12       0.00      48.14       0.00      48.14        0.00     0.00   0.964
  EZG_372952                49.96       0.00       0.12       0.00      48.08       0.00      48.08        0.00     0.00   0.962
  EZG_372999                49.96       0.00       0.12       0.00      48.13       0.00      48.13        0.00     0.00   0.963
  EZG_373147                49.96       0.00       0.12       0.00      48.13       0.00      48.13        0.00     0.00   0.963
  EZG_376360                49.96       0.00       0.12       0.00      48.14       0.00      48.14        0.00     0.00   0.964
  EZG_376039                49.96       0.00       0.12       0.00      48.13       0.00      48.13        0.00     0.00   0.963
  EZG_372959                49.96       0.00       0.12       0.00      48.09       0.00      48.09        0.01     0.01   0.963
  EZG_373031                49.96       0.00       0.12       0.00      48.11       0.00      48.11        0.00     0.00   0.963
  EZG_375504                49.96       0.00       0.12       0.00      48.05       0.00      48.05        0.01     0.02   0.962
  EZG_376377                49.96       0.00       0.12       0.00      48.14       0.00      48.14        0.00     0.00   0.964
  EZG_373166                49.96       0.00       0.12       0.00      48.14       0.00      48.14        0.00     0.00   0.964
  EZG_375520                49.96       0.00       0.12       0.00      48.14       0.00      48.14        0.00     0.00   0.964
  EZG_373120                49.96       0.00       0.12       0.00      48.14       0.00      48.14        0.00     0.00   0.964
  EZG_372995                49.96       0.00       0.12       0.00      47.99       0.00      47.99        0.04     0.06   0.961
  EZG_373158                49.96       0.00       0.12       0.00      47.96       0.00      47.96        0.07     0.09   0.960
  EZG_374486                49.96       0.00       0.12       0.00      48.12       0.00      48.12        0.00     0.00   0.963
  EZG_376050                49.96       0.00       0.12       0.00      48.13       0.00      48.13        0.00     0.00   0.963
  EZG_372931                49.96       0.00       0.12       0.00      48.14       0.00      48.14        0.00     0.00   0.964
  EZG_373162                49.96       0.00       0.12       0.00      48.12       0.00      48.12        0.00     0.00   0.963
  EZG_373063                49.96       0.00       0.12       0.00      48.14       0.00      48.14        0.00     0.00   0.964
  EZG_376012                49.96       0.00       0.12       0.00      48.14       0.00      48.14        0.00     0.00   0.963
  EZG_373164                49.96       0.00       0.12       0.00      48.13       0.00      48.13        0.00     0.00   0.963
  EZG_374515                49.96       0.00       0.12       0.00      48.10       0.00      48.10        0.00     0.01   0.963
  EZG_373139                49.96       0.00       0.12       0.00      48.13       0.00      48.13        0.00     0.00   0.963
  EZG_374481                49.96       0.00       0.12       0.00      48.13       0.00      48.13        0.00     0.00   0.963
  EZG_372950                49.96       0.00       0.12       0.00      48.12       0.00      48.12        0.00     0.00   0.963
  EZG_373157                49.96       0.00       0.12       0.00      48.01       0.00      48.01        0.03     0.04   0.961
  EZG_373170                49.96       0.00       0.12       0.00      48.14       0.00      48.14        0.00     0.00   0.964
  EZG_374428                49.96       0.00       0.12       0.00      48.05       0.00      48.05        0.01     0.02   0.962
  EZG_374564                49.96       0.00       0.12       0.00      48.08       0.00      48.08        0.01     0.01   0.962
  EZG_373132                49.96       0.00       0.12       0.00      48.14       0.00      48.14        0.00     0.00   0.964
  EZG_374431                49.96       0.00       0.12       0.00      48.07       0.00      48.07        0.01     0.01   0.962
  EZG_374512                49.96       0.00       0.12       0.00      48.13       0.00      48.13        0.00     0.00   0.963
  EZG_374436                49.96       0.00       0.12       0.00      48.14       0.00      48.14        0.00     0.00   0.964
  EZG_373137                49.96       0.00       0.12       0.00      48.14       0.00      48.14        0.00     0.00   0.964
  EZG_373151                49.96       0.00       0.12       0.00      48.14       0.00      48.14        0.00     0.00   0.963
  EZG_373152                49.96       0.00       0.12       0.00      48.13       0.00      48.13        0.00     0.00   0.963
  EZG_373167                49.96       0.00       0.12       0.00      48.14       0.00      48.14        0.00     0.00   0.964
  EZG_373156                49.96       0.00       0.12       0.00      48.01       0.00      48.01        0.03     0.04   0.961
  EZG_373169                49.96       0.00       0.12       0.00      48.14       0.00      48.14        0.00     0.00   0.964
  EZG_373143                49.96       0.00       0.12       0.00      48.14       0.00      48.14        0.00     0.00   0.964
  EZG_376356                49.96       0.00       0.12       0.00      48.14       0.00      48.14        0.00     0.00   0.964
  EZG_373145                49.96       0.00       0.12       0.00      48.14       0.00      48.14        0.00     0.00   0.964
  EZG_376317                49.96       0.00       0.12       0.00      48.13       0.00      48.13        0.00     0.00   0.963
  EZG_373001                49.96       0.00       0.12       0.00      48.13       0.00      48.13        0.00     0.00   0.963
  EZG_376984                49.96       0.00       0.12       0.00      48.14       0.00      48.14        0.00     0.00   0.964
  EZG_376040                49.96       0.00       0.12       0.00      48.12       0.00      48.12        0.00     0.00   0.963
  EZG_376307                49.96       0.00       0.12       0.00      48.13       0.00      48.13        0.00     0.00   0.963
  EZG_374514                49.96       0.00       0.12       0.00      48.12       0.00      48.12        0.00     0.00   0.963
  EZG_374437                49.96       0.00       0.12       0.00      48.13       0.00      48.13        0.00     0.00   0.963
  EZG_372944                49.96       0.00       0.12       0.00      48.14       0.00      48.14        0.00     0.00   0.964
  EZG_376325                49.96       0.00       0.12       0.00      48.12       0.00      48.12        0.00     0.00   0.963
  EZG_375747                49.96       0.00       0.12       0.00      48.14       0.00      48.14        0.00     0.00   0.964
  EZG_374483                49.96       0.00       0.12       0.00      48.13       0.00      48.13        0.00     0.00   0.963
  EZG_374484                49.96       0.00       0.12       0.00      48.06       0.00      48.06        0.01     0.02   0.962
  EZG_374485                49.96       0.00       0.12       0.00      48.13       0.00      48.13        0.00     0.00   0.963
  EZG_372929                49.96       0.00       0.12       0.00      48.11       0.00      48.11        0.00     0.01   0.963
  EZG_372930                49.96       0.00       0.12       0.00      47.92       0.00      47.92        0.13     0.17   0.959
  EZG_374118                49.96       0.00       0.12       0.00      48.12       0.00      48.12        0.00     0.00   0.963
  EZG_376052                49.96       0.00       0.12       0.00      48.12       0.00      48.12        0.00     0.00   0.963
  EZG_372932                49.96       0.00       0.12       0.00      48.12       0.00      48.12        0.00     0.00   0.963
  EZG_374432                49.96       0.00       0.12       0.00      48.11       0.00      48.11        0.00     0.00   0.963
  EZG_374569                49.96       0.00       0.12       0.00      48.11       0.00      48.11        0.00     0.01   0.963
  EZG_372421                49.96       0.00       0.12       0.00      48.14       0.00      48.14        0.00     0.00   0.964
  EZG_373078                49.96       0.00       0.12       0.00      48.14       0.00      48.14        0.00     0.00   0.964
  EZG_374482                49.96       0.00       0.12       0.00      48.14       0.00      48.14        0.00     0.00   0.964
  EZG_376354                49.96       0.00       0.12       0.00      48.12       0.00      48.12        0.00     0.00   0.963
  EZG_374562                49.96       0.00       0.12       0.00      48.14       0.00      48.14        0.00     0.00   0.964
  EZG_373192                49.96       0.00       0.12       0.00      48.09       0.00      48.09        0.00     0.00   0.963
  EZG_376021                49.96       0.00       0.12       0.00      48.12       0.00      48.12        0.00     0.00   0.963
  EZG_374510                49.96       0.00       0.12       0.00      48.14       0.00      48.14        0.00     0.00   0.964
  EZG_374511                49.96       0.00       0.12       0.00      48.13       0.00      48.13        0.00     0.00   0.963
  EZG_374567                49.96       0.00       0.12       0.00      48.09       0.00      48.09        0.01     0.01   0.962
  EZG_374430                49.96       0.00       0.12       0.00      48.14       0.00      48.14        0.00     0.00   0.963
  EZG_376316                49.96       0.00       0.12       0.00      48.13       0.00      48.13        0.00     0.00   0.963
  EZG_375755                49.96       0.00       0.12       0.00      48.12       0.00      48.12        0.00     0.00   0.963
  EZG_373142                49.96       0.00       0.12       0.00      48.14       0.00      48.14        0.00     0.00   0.964
  EZG_372927                49.96       0.00       0.12       0.00      48.11       0.00      48.11        0.00     0.01   0.963
  EZG_373141                49.96       0.00       0.12       0.00      48.14       0.00      48.14        0.00     0.00   0.964
  EZG_372928                49.96       0.00       0.12       0.00      47.96       0.00      47.96        0.07     0.09   0.960
  EZG_376037                49.96       0.00       0.12       0.00      48.13       0.00      48.13        0.00     0.00   0.963
  EZG_373148                49.96       0.00       0.12       0.00      48.14       0.00      48.14        0.00     0.00   0.964
  EZG_374566                49.96       0.00       0.12       0.00      48.09       0.00      48.09        0.01     0.01   0.963
  EZG_372926                49.96       0.00       0.12       0.00      47.98       0.00      47.98        0.05     0.07   0.960
  EZG_372964                49.96       0.00       0.12       0.00      48.11       0.00      48.11        0.00     0.00   0.963
  EZG_373059                49.96       0.00       0.12       0.00      48.11       0.00      48.11        0.00     0.00   0.963
  EZG_376326                49.96       0.00       0.07       8.60      24.07      28.50      40.53        0.00     0.00   0.811
  EZG_374142                49.96       0.00       0.07       8.42      24.02      28.67      40.68        0.00     0.00   0.814
  EZG_376049                49.96       0.00       0.07       8.43      24.03      28.66      40.67        0.00     0.00   0.814
  EZG_374141                49.96       0.00       0.07       8.58      24.07      28.52      40.55        0.00     0.00   0.812
  EZG_377102                49.96       0.00       0.07       8.60      24.07      28.50      40.53        0.00     0.00   0.811
  EZG_376999                49.96       0.00       0.07       8.46      24.03      28.64      40.66        0.00     0.00   0.814
  EZG_377101                49.96       0.00       0.07       8.49      24.05      28.61      40.63        0.00     0.00   0.813
  EZG_374417                49.96       0.00       0.12       0.00      47.64       0.00      47.64        0.00     0.00   0.954
  EZG_374230                49.96       0.00       0.12       0.00      47.53       0.00      47.53        0.02     0.03   0.951
  EZG_374392                49.96       0.00       0.12       0.00      47.64       0.00      47.64        0.00     0.00   0.954
  EZG_374416                49.96       0.00       0.12       0.00      47.64       0.00      47.64        0.00     0.00   0.953
  EZG_372268                49.96       0.00       0.12       0.00      47.62       0.00      47.62        0.00     0.01   0.953
  EZG_372322                49.96       0.00       0.12       0.00      47.65       0.00      47.65        0.00     0.00   0.954
  EZG_374556                49.96       0.00       0.12       0.00      47.64       0.00      47.64        0.00     0.00   0.954
  EZG_374234                49.96       0.00       0.12       0.00      47.64       0.00      47.64        0.00     0.00   0.954
  EZG_374342                49.96       0.00       0.12       0.00      47.63       0.00      47.63        0.00     0.00   0.953
  EZG_374298                49.96       0.00       0.12       0.00      47.64       0.00      47.64        0.00     0.00   0.954
  EZG_375683                49.96       0.00       0.12       0.00      47.62       0.00      47.62        0.00     0.00   0.953
  EZG_374290                49.96       0.00       0.12       0.00      47.64       0.00      47.64        0.00     0.00   0.954
  EZG_374258                49.96       0.00       0.12       0.00      47.63       0.00      47.63        0.00     0.00   0.953
  EZG_374302                49.96       0.00       0.12       0.00      47.64       0.00      47.64        0.00     0.00   0.954
  EZG_374260                49.96       0.00       0.12       0.00      47.61       0.00      47.61        0.00     0.01   0.953
  EZG_374227                49.96       0.00       0.12       0.00      47.63       0.00      47.63        0.00     0.00   0.953
  EZG_372270                49.96       0.00       0.12       0.00      47.64       0.00      47.64        0.00     0.00   0.954
  EZG_374310                49.96       0.00       0.12       0.00      47.65       0.00      47.65        0.00     0.00   0.954
  EZG_374333                49.96       0.00       0.12       0.00      47.64       0.00      47.64        0.00     0.00   0.954
  EZG_374447                49.96       0.00       0.12       0.00      47.64       0.00      47.64        0.00     0.00   0.954
  EZG_374552                49.96       0.00       0.12       0.00      47.64       0.00      47.64        0.00     0.00   0.953
  EZG_374412                49.96       0.00       0.12       0.00      47.64       0.00      47.64        0.00     0.00   0.954
  EZG_374129                49.96       0.00       0.12       0.00      47.64       0.00      47.64        0.00     0.00   0.954
  EZG_374554                49.96       0.00       0.12       0.00      47.61       0.00      47.61        0.00     0.00   0.953
  EZG_374555                49.96       0.00       0.12       0.00      47.65       0.00      47.65        0.00     0.00   0.954
  EZG_374418                49.96       0.00       0.12       0.00      47.64       0.00      47.64        0.00     0.00   0.954
  EZG_374259                49.96       0.00       0.12       0.00      47.49       0.00      47.49        0.04     0.06   0.950
  EZG_374124                49.96       0.00       0.12       0.00      47.64       0.00      47.64        0.00     0.00   0.954
  EZG_374396                49.96       0.00       0.12       0.00      47.63       0.00      47.63        0.00     0.00   0.953
  EZG_375522                49.96       0.00       0.12       0.00      47.61       0.00      47.61        0.00     0.00   0.953
  EZG_374398                49.96       0.00       0.12       0.00      47.64       0.00      47.64        0.00     0.00   0.954
  EZG_374549                49.96       0.00       0.12       0.00      47.64       0.00      47.64        0.00     0.00   0.954
  EZG_374299                49.96       0.00       0.12       0.00      47.65       0.00      47.65        0.00     0.00   0.954
  EZG_374143                49.96       0.00       0.12       0.00      47.64       0.00      47.64        0.00     0.00   0.954
  EZG_375694                49.96       0.00       0.12       0.00      47.63       0.00      47.63        0.00     0.00   0.953
  EZG_372333                49.96       0.00       0.12       0.00      47.63       0.00      47.63        0.00     0.00   0.953
  EZG_374387                49.96       0.00       0.12       0.00      47.64       0.00      47.64        0.00     0.00   0.954
  EZG_374388                49.96       0.00       0.12       0.00      47.63       0.00      47.63        0.00     0.00   0.953
  EZG_375516                49.96       0.00       0.12       0.00      47.55       0.00      47.55        0.01     0.02   0.952
  EZG_374225                49.96       0.00       0.12       0.00      47.65       0.00      47.65        0.00     0.00   0.954
  EZG_375551                49.96       0.00       0.12       0.00      47.63       0.00      47.63        0.00     0.00   0.953
  EZG_372326                49.96       0.00       0.12       0.00      47.64       0.00      47.64        0.00     0.00   0.954
  EZG_372133                49.96       0.00       0.12       0.00      47.62       0.00      47.62        0.00     0.01   0.953
  EZG_374126                49.96       0.00       0.12       0.00      47.61       0.00      47.61        0.00     0.00   0.953
  EZG_376381                49.96       0.00       0.12       0.00      47.63       0.00      47.63        0.00     0.00   0.953
  EZG_374338                49.96       0.00       0.12       0.00      47.63       0.00      47.63        0.00     0.00   0.953
  EZG_374229                49.96       0.00       0.12       0.00      47.52       0.00      47.52        0.02     0.04   0.951
  EZG_374256                49.96       0.00       0.12       0.00      47.64       0.00      47.64        0.00     0.00   0.954
  EZG_375546                49.96       0.00       0.12       0.00      47.65       0.00      47.65        0.00     0.00   0.954
  EZG_372147                49.96       0.00       0.12       0.00      47.60       0.00      47.60        0.01     0.01   0.953
  EZG_374301                49.96       0.00       0.12       0.00      47.63       0.00      47.63        0.00     0.00   0.953
  EZG_374147                49.96       0.00       0.12       0.00      47.60       0.00      47.60        0.00     0.00   0.953
  EZG_374149                49.96       0.00       0.12       0.00      47.58       0.00      47.58        0.01     0.01   0.952
  EZG_374304                49.96       0.00       0.12       0.00      47.55       0.00      47.55        0.01     0.02   0.952
  EZG_375785                49.96       0.00       0.12       0.00      47.63       0.00      47.63        0.00     0.00   0.953
  EZG_376043                49.96       0.00       0.12       0.00      47.63       0.00      47.63        0.00     0.00   0.953
  EZG_372304                49.96       0.00       0.12       0.00      47.59       0.00      47.59        0.01     0.01   0.953
  EZG_374226                49.96       0.00       0.12       0.00      47.61       0.00      47.61        0.00     0.01   0.953
  EZG_374128                49.96       0.00       0.12       0.00      47.64       0.00      47.64        0.00     0.00   0.954
  EZG_374130                49.96       0.00       0.12       0.00      47.64       0.00      47.64        0.00     0.00   0.954
  EZG_375558                49.96       0.00       0.12       0.00      47.62       0.00      47.62        0.00     0.00   0.953
  EZG_375559                49.96       0.00       0.12       0.00      47.63       0.00      47.63        0.00     0.00   0.953
  EZG_372186                49.96       0.00       0.12       0.00      47.56       0.00      47.56        0.01     0.02   0.952
  EZG_375574                49.96       0.00       0.12       0.00      47.65       0.00      47.65        0.00     0.00   0.954
  EZG_375562                49.96       0.00       0.12       0.00      47.64       0.00      47.64        0.00     0.00   0.953
  EZG_375517                49.96       0.00       0.12       0.00      47.64       0.00      47.64        0.00     0.00   0.954
  EZG_374318                49.96       0.00       0.12       0.00      47.65       0.00      47.65        0.00     0.00   0.954
  EZG_376015                49.96       0.00       0.12       0.00      47.64       0.00      47.64        0.00     0.00   0.954
  EZG_374559                49.96       0.00       0.12       0.00      47.64       0.00      47.64        0.00     0.00   0.954
  EZG_374240                49.96       0.00       0.12       0.00      47.65       0.00      47.65        0.00     0.00   0.954
  EZG_374422                49.96       0.00       0.12       0.00      47.63       0.00      47.63        0.00     0.00   0.953
  EZG_375509                49.96       0.00       0.12       0.00      47.64       0.00      47.64        0.00     0.00   0.954
  EZG_374297                49.96       0.00       0.12       0.00      47.65       0.00      47.65        0.00     0.00   0.954
  EZG_375691                49.96       0.00       0.12       0.00      47.64       0.00      47.64        0.00     0.00   0.954
  EZG_373194                49.96       0.00       0.12       0.00      47.56       0.00      47.56        0.01     0.02   0.952
  EZG_372405                49.96       0.00       0.12       0.00      47.56       0.00      47.56        0.01     0.02   0.952
  EZG_374448                49.96       0.00       0.12       0.00      47.65       0.00      47.65        0.00     0.00   0.954
  EZG_375548                49.96       0.00       0.12       0.00      47.64       0.00      47.64        0.00     0.00   0.954
  EZG_374303                49.96       0.00       0.12       0.00      47.64       0.00      47.64        0.00     0.00   0.954
  EZG_374291                49.96       0.00       0.12       0.00      47.64       0.00      47.64        0.00     0.00   0.954
  EZG_374027                49.96       0.00       0.12       0.00      47.63       0.00      47.63        0.00     0.00   0.953
  EZG_375552                49.96       0.00       0.12       0.00      47.62       0.00      47.62        0.00     0.00   0.953
  EZG_375639                49.96       0.00       0.12       0.00      47.58       0.00      47.58        0.01     0.01   0.952
  EZG_375787                49.96       0.00       0.12       0.00      47.64       0.00      47.64        0.00     0.00   0.954
  EZG_374503                49.96       0.00       0.12       0.00      47.64       0.00      47.64        0.00     0.00   0.953
  EZG_372180                49.96       0.00       0.12       0.00      47.55       0.00      47.55        0.01     0.02   0.952
  EZG_374257                49.96       0.00       0.12       0.00      47.64       0.00      47.64        0.00     0.00   0.953
  EZG_372399                49.96       0.00       0.12       0.00      47.48       0.00      47.48        0.05     0.07   0.950
  EZG_375645                49.96       0.00       0.12       0.00      47.64       0.00      47.64        0.00     0.00   0.954
  EZG_375667                49.96       0.00       0.12       0.00      47.62       0.00      47.62        0.00     0.00   0.953
  EZG_375668                49.96       0.00       0.12       0.00      47.62       0.00      47.62        0.00     0.00   0.953
  EZG_375549                49.96       0.00       0.12       0.00      47.64       0.00      47.64        0.00     0.00   0.954
  EZG_375682                49.96       0.00       0.12       0.00      47.65       0.00      47.65        0.00     0.00   0.954
  EZG_376893                49.96       0.00       0.12       0.00      47.64       0.00      47.64        0.00     0.00   0.954
  EZG_372324                49.96       0.00       0.12       0.00      47.65       0.00      47.65        0.00     0.00   0.954
  EZG_374123                49.96       0.00       0.12       0.00      47.65       0.00      47.65        0.00     0.00   0.954
  EZG_374420                49.96       0.00       0.12       0.00      47.64       0.00      47.64        0.00     0.00   0.954
  EZG_374295                49.96       0.00       0.12       0.00      47.64       0.00      47.64        0.00     0.00   0.954
  EZG_374255                49.96       0.00       0.12       0.00      47.64       0.00      47.64        0.00     0.00   0.954
  EZG_375643                49.96       0.00       0.12       0.00      47.64       0.00      47.64        0.00     0.00   0.954
  EZG_375644                49.96       0.00       0.12       0.00      47.64       0.00      47.64        0.00     0.00   0.954
  EZG_376343                49.96       0.00       0.12       0.00      47.62       0.00      47.62        0.00     0.00   0.953
  EZG_376344                49.96       0.00       0.12       0.00      47.65       0.00      47.65        0.00     0.00   0.954
  EZG_374131                49.96       0.00       0.12       0.00      47.62       0.00      47.62        0.00     0.00   0.953
  EZG_375669                49.96       0.00       0.12       0.00      47.62       0.00      47.62        0.00     0.00   0.953
  EZG_374135                49.96       0.00       0.12       0.00      47.63       0.00      47.63        0.00     0.00   0.953
  EZG_374360                49.96       0.00       0.12       0.00      47.49       0.00      47.49        0.04     0.06   0.950
  EZG_374249                49.96       0.00       0.12       0.00      47.64       0.00      47.64        0.00     0.00   0.954
  EZG_374137                49.96       0.00       0.12       0.00      47.60       0.00      47.60        0.01     0.01   0.953
  EZG_375743                49.96       0.00       0.12       0.00      47.64       0.00      47.64        0.00     0.00   0.954
  EZG_375687                49.96       0.00       0.12       0.00      47.59       0.00      47.59        0.01     0.01   0.953
  EZG_374336                49.96       0.00       0.12       0.00      47.56       0.00      47.56        0.01     0.02   0.952
  EZG_374504                49.96       0.00       0.12       0.00      47.64       0.00      47.64        0.00     0.00   0.954
  EZG_372181                49.96       0.00       0.12       0.00      47.56       0.00      47.56        0.01     0.02   0.952
  EZG_376939                49.96       0.00       0.12       0.00      47.64       0.00      47.64        0.00     0.00   0.954
  EZG_374385                49.96       0.00       0.12       0.00      47.64       0.00      47.64        0.00     0.00   0.954
  EZG_374144                49.96       0.00       0.12       0.00      47.65       0.00      47.65        0.00     0.00   0.954
  EZG_375757                49.96       0.00       0.12       0.00      47.60       0.00      47.60        0.00     0.00   0.953
  EZG_375781                49.96       0.00       0.12       0.00      47.57       0.00      47.57        0.01     0.01   0.952
  EZG_374451                49.96       0.00       0.12       0.00      47.56       0.00      47.56        0.01     0.02   0.952
  EZG_374390                49.96       0.00       0.12       0.00      47.62       0.00      47.62        0.00     0.00   0.953
  EZG_375784                49.96       0.00       0.12       0.00      47.64       0.00      47.64        0.00     0.00   0.954
  EZG_376364                49.96       0.00       0.12       0.00      47.64       0.00      47.64        0.00     0.00   0.954
  EZG_375640                49.96       0.00       0.12       0.00      47.63       0.00      47.63        0.00     0.00   0.953
  EZG_375688                49.96       0.00       0.12       0.00      47.65       0.00      47.65        0.00     0.00   0.954
  EZG_376355                49.96       0.00       0.12       0.00      47.63       0.00      47.63        0.00     0.00   0.953
  EZG_375544                49.96       0.00       0.12       0.00      47.64       0.00      47.64        0.00     0.00   0.954
  EZG_374228                49.96       0.00       0.12       0.00      47.63       0.00      47.63        0.00     0.00   0.953
  EZG_374411                49.96       0.00       0.12       0.00      47.63       0.00      47.63        0.00     0.00   0.953
  EZG_375512                49.96       0.00       0.12       0.00      47.64       0.00      47.64        0.00     0.00   0.954
  EZG_374413                49.96       0.00       0.12       0.00      47.64       0.00      47.64        0.00     0.00   0.954
  EZG_372145                49.96       0.00       0.12       0.00      47.62       0.00      47.62        0.00     0.00   0.953
  EZG_374415                49.96       0.00       0.12       0.00      47.64       0.00      47.64        0.00     0.00   0.954
  EZG_376375                49.96       0.00       0.12       0.00      47.63       0.00      47.63        0.00     0.00   0.953
  EZG_375564                49.96       0.00       0.12       0.00      47.63       0.00      47.63        0.00     0.00   0.953
  EZG_374494                49.96       0.00       0.12       0.00      47.64       0.00      47.64        0.00     0.00   0.954
  EZG_374307                49.96       0.00       0.12       0.00      47.64       0.00      47.64        0.00     0.00   0.953
  EZG_376366                49.96       0.00       0.12       0.00      47.64       0.00      47.64        0.00     0.00   0.953
  EZG_374397                49.96       0.00       0.12       0.00      47.64       0.00      47.64        0.00     0.00   0.954
  EZG_375789                49.96       0.00       0.12       0.00      47.62       0.00      47.62        0.00     0.00   0.953
  EZG_375690                49.96       0.00       0.12       0.00      47.63       0.00      47.63        0.00     0.00   0.953
  EZG_375524                49.96       0.00       0.12       0.00      47.65       0.00      47.65        0.00     0.00   0.954
  EZG_374243                49.96       0.00       0.12       0.00      47.65       0.00      47.65        0.00     0.00   0.954
  EZG_374244                49.96       0.00       0.12       0.00      47.65       0.00      47.65        0.00     0.00   0.954
  EZG_372188                49.96       0.00       0.12       0.00      47.65       0.00      47.65        0.00     0.00   0.954
  EZG_374316                49.96       0.00       0.12       0.00      47.52       0.00      47.52        0.02     0.03   0.951
  EZG_372337                49.96       0.00       0.12       0.00      47.65       0.00      47.65        0.00     0.00   0.954
  EZG_375578                49.96       0.00       0.12       0.00      47.64       0.00      47.64        0.00     0.00   0.954
  EZG_374250                49.96       0.00       0.12       0.00      47.64       0.00      47.64        0.00     0.00   0.954
  EZG_374440                49.96       0.00       0.12       0.00      47.56       0.00      47.56        0.01     0.02   0.952
  EZG_376017                49.96       0.00       0.12       0.00      47.62       0.00      47.62        0.00     0.00   0.953
  EZG_375521                49.96       0.00       0.12       0.00      47.65       0.00      47.65        0.00     0.00   0.954
  EZG_376059                49.96       0.00       0.12       0.00      47.60       0.00      47.60        0.01     0.01   0.953
  EZG_376938                49.96       0.00       0.12       0.00      47.62       0.00      47.62        0.00     0.00   0.953
  EZG_376034                49.96       0.00       0.12       0.00      47.65       0.00      47.65        0.00     0.00   0.954
  EZG_375545                49.96       0.00       0.12       0.00      47.65       0.00      47.65        0.00     0.00   0.954
  EZG_376607                49.96       0.00       0.12       0.00      47.65       0.00      47.65        0.00     0.00   0.954
  EZG_375547                49.96       0.00       0.12       0.00      47.64       0.00      47.64        0.00     0.00   0.954
  EZG_376038                49.96       0.00       0.12       0.00      47.64       0.00      47.64        0.00     0.00   0.953
  EZG_375502                49.96       0.00       0.12       0.00      47.64       0.00      47.64        0.00     0.00   0.954
  EZG_376611                49.96       0.00       0.12       0.00      47.64       0.00      47.64        0.00     0.00   0.954
  EZG_376612                49.96       0.00       0.12       0.00      47.64       0.00      47.64        0.00     0.00   0.953
  EZG_376042                49.96       0.00       0.12       0.00      47.64       0.00      47.64        0.00     0.00   0.954
  EZG_376614                49.96       0.00       0.12       0.00      47.62       0.00      47.62        0.00     0.01   0.953
  EZG_374294                49.96       0.00       0.12       0.00      47.64       0.00      47.64        0.00     0.00   0.954
  EZG_374253                49.96       0.00       0.12       0.00      47.64       0.00      47.64        0.00     0.00   0.954
  EZG_372305                49.96       0.00       0.12       0.00      47.64       0.00      47.64        0.00     0.00   0.954
  EZG_375557                49.96       0.00       0.12       0.00      47.62       0.00      47.62        0.00     0.00   0.953
  EZG_376048                49.96       0.00       0.12       0.00      47.64       0.00      47.64        0.00     0.00   0.954
  EZG_376330                49.96       0.00       0.12       0.00      47.63       0.00      47.63        0.00     0.00   0.953
  EZG_375560                49.96       0.00       0.12       0.00      47.64       0.00      47.64        0.00     0.00   0.954
  EZG_375561                49.96       0.00       0.12       0.00      47.62       0.00      47.62        0.00     0.00   0.953
  EZG_376821                49.96       0.00       0.12       0.00      47.64       0.00      47.64        0.00     0.00   0.954
  EZG_375563                49.96       0.00       0.12       0.00      47.59       0.00      47.59        0.01     0.01   0.953
  EZG_377100                49.96       0.00       0.12       0.00      47.64       0.00      47.64        0.00     0.00   0.954
  EZG_374122                49.96       0.00       0.12       0.00      47.65       0.00      47.65        0.00     0.00   0.954
  EZG_375686                49.96       0.00       0.12       0.00      47.58       0.00      47.58        0.01     0.01   0.952
  EZG_374501                49.96       0.00       0.12       0.00      47.65       0.00      47.65        0.00     0.00   0.954
  EZG_376045                49.96       0.00       0.12       0.00      47.64       0.00      47.64        0.00     0.00   0.954
  EZG_377110                49.96       0.00       0.12       0.00      47.64       0.00      47.64        0.00     0.00   0.954
  EZG_376590                49.96       0.00       0.12       0.00      47.52       0.00      47.52        0.02     0.03   0.951
  EZG_374505                49.96       0.00       0.12       0.00      47.65       0.00      47.65        0.00     0.00   0.954
  EZG_376841                49.96       0.00       0.12       0.00      47.64       0.00      47.64        0.00     0.00   0.954
  EZG_373197                49.96       0.00       0.12       0.00      47.65       0.00      47.65        0.00     0.00   0.954
  EZG_376064                49.96       0.00       0.12       0.00      47.63       0.00      47.63        0.00     0.00   0.953
  EZG_374246                49.96       0.00       0.12       0.00      47.65       0.00      47.65        0.00     0.00   0.954
  EZG_374134                49.96       0.00       0.12       0.00      47.64       0.00      47.64        0.00     0.00   0.953
  EZG_376349                49.96       0.00       0.12       0.00      47.62       0.00      47.62        0.00     0.00   0.953
  EZG_374439                49.96       0.00       0.12       0.00      47.64       0.00      47.64        0.00     0.00   0.954
  EZG_374319                49.96       0.00       0.12       0.00      47.61       0.00      47.61        0.00     0.01   0.953
  EZG_374138                49.96       0.00       0.12       0.00      47.59       0.00      47.59        0.00     0.00   0.953
  EZG_374502                49.96       0.00       0.12       0.00      47.64       0.00      47.64        0.00     0.00   0.953
  EZG_372396                49.96       0.00       0.12       0.00      47.44       0.00      47.44        0.09     0.13   0.950
  EZG_374254                49.96       0.00       0.12       0.00      47.64       0.00      47.64        0.00     0.00   0.954
  EZG_374324                49.96       0.00       0.12       0.00      47.65       0.00      47.65        0.00     0.00   0.954
  EZG_374325                49.96       0.00       0.12       0.00      47.65       0.00      47.65        0.00     0.00   0.954
  EZG_375631                49.96       0.00       0.12       0.00      47.63       0.00      47.63        0.00     0.00   0.953
  EZG_372407                49.96       0.00       0.12       0.00      47.59       0.00      47.59        0.01     0.01   0.953
  EZG_374540                49.96       0.00       0.12       0.00      47.65       0.00      47.65        0.00     0.00   0.954
  EZG_376610                49.96       0.00       0.12       0.00      47.64       0.00      47.64        0.00     0.00   0.954
  EZG_374330                49.96       0.00       0.12       0.00      47.64       0.00      47.64        0.00     0.00   0.954
  EZG_374331                49.96       0.00       0.12       0.00      47.64       0.00      47.64        0.00     0.00   0.954
  EZG_374544                49.96       0.00       0.12       0.00      47.54       0.00      47.54        0.02     0.02   0.952
  EZG_376324                49.96       0.00       0.12       0.00      47.60       0.00      47.60        0.00     0.00   0.953
  EZG_376883                49.96       0.00       0.12       0.00      47.64       0.00      47.64        0.00     0.00   0.954
  EZG_376884                49.96       0.00       0.12       0.00      47.64       0.00      47.64        0.00     0.00   0.954
  EZG_376327                49.96       0.00       0.12       0.00      47.61       0.00      47.61        0.00     0.00   0.953
  EZG_376328                49.96       0.00       0.12       0.00      47.63       0.00      47.63        0.00     0.00   0.953
  EZG_376329                49.96       0.00       0.12       0.00      47.63       0.00      47.63        0.00     0.00   0.953
  EZG_376008                49.96       0.00       0.12       0.00      47.64       0.00      47.64        0.00     0.00   0.954
  EZG_376331                49.96       0.00       0.12       0.00      47.64       0.00      47.64        0.00     0.00   0.954
  EZG_376332                49.96       0.00       0.12       0.00      47.64       0.00      47.64        0.00     0.00   0.954
  EZG_376333                49.96       0.00       0.12       0.00      47.64       0.00      47.64        0.00     0.00   0.954
  EZG_376334                49.96       0.00       0.12       0.00      47.64       0.00      47.64        0.00     0.00   0.954
  EZG_376053                49.96       0.00       0.12       0.00      47.65       0.00      47.65        0.00     0.00   0.954
  EZG_376833                49.96       0.00       0.12       0.00      47.64       0.00      47.64        0.00     0.00   0.954
  EZG_375685                49.96       0.00       0.12       0.00      47.61       0.00      47.61        0.00     0.00   0.953
  EZG_376896                49.96       0.00       0.12       0.00      47.64       0.00      47.64        0.00     0.00   0.954
  EZG_377104                49.96       0.00       0.12       0.00      47.62       0.00      47.62        0.00     0.00   0.953
  EZG_375568                49.96       0.00       0.12       0.00      47.64       0.00      47.64        0.00     0.00   0.954
  EZG_375570                49.96       0.00       0.12       0.00      47.64       0.00      47.64        0.00     0.00   0.954
  EZG_376060                49.96       0.00       0.12       0.00      47.64       0.00      47.64        0.00     0.00   0.954
  EZG_376901                49.96       0.00       0.12       0.00      47.64       0.00      47.64        0.00     0.00   0.954
  EZG_376902                49.96       0.00       0.12       0.00      47.62       0.00      47.62        0.00     0.00   0.953
  EZG_376903                49.96       0.00       0.12       0.00      47.59       0.00      47.59        0.01     0.01   0.953
  EZG_374132                49.96       0.00       0.12       0.00      47.64       0.00      47.64        0.00     0.00   0.954
  EZG_376865                49.96       0.00       0.12       0.00      47.64       0.00      47.64        0.00     0.00   0.954
  EZG_376308                49.96       0.00       0.12       0.00      47.64       0.00      47.64        0.00     0.00   0.954
  EZG_376309                49.96       0.00       0.12       0.00      47.64       0.00      47.64        0.00     0.00   0.954
  EZG_375538                49.96       0.00       0.12       0.00      47.60       0.00      47.60        0.00     0.00   0.953
  EZG_376351                49.96       0.00       0.12       0.00      47.64       0.00      47.64        0.00     0.00   0.954
  EZG_374015                49.96       0.00       0.12       0.00      47.43       0.00      47.43        0.10     0.14   0.949
  EZG_374139                49.96       0.00       0.12       0.00      47.63       0.00      47.63        0.00     0.00   0.953
  EZG_374323                49.96       0.00       0.12       0.00      47.65       0.00      47.65        0.00     0.00   0.954
  EZG_376604                49.96       0.00       0.12       0.00      47.64       0.00      47.64        0.00     0.00   0.954
  EZG_376605                49.96       0.00       0.12       0.00      47.64       0.00      47.64        0.00     0.00   0.954
  EZG_376357                49.96       0.00       0.12       0.00      47.62       0.00      47.62        0.00     0.00   0.953
  EZG_374386                49.96       0.00       0.12       0.00      47.64       0.00      47.64        0.00     0.00   0.953
  EZG_376359                49.96       0.00       0.12       0.00      47.64       0.00      47.64        0.00     0.00   0.954
  EZG_376609                49.96       0.00       0.12       0.00      47.64       0.00      47.64        0.00     0.00   0.954
  EZG_375782                49.96       0.00       0.12       0.00      47.59       0.00      47.59        0.01     0.01   0.953
  EZG_376362                49.96       0.00       0.12       0.00      47.63       0.00      47.63        0.00     0.00   0.953
  EZG_376363                49.96       0.00       0.12       0.00      47.65       0.00      47.65        0.00     0.00   0.954
  EZG_376613                49.96       0.00       0.12       0.00      47.64       0.00      47.64        0.00     0.00   0.953
  EZG_374395                49.96       0.00       0.12       0.00      47.63       0.00      47.63        0.00     0.00   0.953
  EZG_375567                49.96       0.00       0.12       0.00      47.64       0.00      47.64        0.00     0.00   0.954
  EZG_375508                49.96       0.00       0.12       0.00      47.64       0.00      47.64        0.00     0.00   0.954
  EZG_376368                49.96       0.00       0.12       0.00      47.64       0.00      47.64        0.00     0.00   0.954
  EZG_374409                49.96       0.00       0.12       0.00      47.63       0.00      47.63        0.00     0.00   0.953
  EZG_376887                49.96       0.00       0.12       0.00      47.64       0.00      47.64        0.00     0.00   0.954
  EZG_376371                49.96       0.00       0.12       0.00      47.64       0.00      47.64        0.00     0.00   0.954
  EZG_376010                49.96       0.00       0.12       0.00      47.65       0.00      47.65        0.00     0.00   0.954
  EZG_374414                49.96       0.00       0.12       0.00      47.65       0.00      47.65        0.00     0.00   0.954
  EZG_377099                49.96       0.00       0.12       0.00      47.64       0.00      47.64        0.00     0.00   0.954
  EZG_376892                49.96       0.00       0.12       0.00      47.64       0.00      47.64        0.00     0.00   0.954
  EZG_376866                49.96       0.00       0.12       0.00      47.62       0.00      47.62        0.00     0.00   0.953
  EZG_375565                49.96       0.00       0.12       0.00      47.64       0.00      47.64        0.00     0.00   0.954
  EZG_374419                49.96       0.00       0.12       0.00      47.65       0.00      47.65        0.00     0.00   0.954
  EZG_375744                49.96       0.00       0.12       0.00      47.64       0.00      47.64        0.00     0.00   0.954
  EZG_374252                49.96       0.00       0.12       0.00      47.64       0.00      47.64        0.00     0.00   0.954
  EZG_376838                49.96       0.00       0.12       0.00      47.64       0.00      47.64        0.00     0.00   0.954
  EZG_374526                49.96       0.00       0.12       0.00      47.55       0.00      47.55        0.02     0.02   0.952
  EZG_376061                49.96       0.00       0.12       0.00      47.65       0.00      47.65        0.00     0.00   0.954
  EZG_376022                49.96       0.00       0.12       0.00      47.64       0.00      47.64        0.00     0.00   0.954
  EZG_376023                49.96       0.00       0.12       0.00      47.64       0.00      47.64        0.00     0.00   0.954
  EZG_375534                49.96       0.00       0.12       0.00      47.64       0.00      47.64        0.00     0.00   0.954
  EZG_374133                49.96       0.00       0.12       0.00      47.62       0.00      47.62        0.00     0.00   0.953
  EZG_375740                49.96       0.00       0.12       0.00      47.64       0.00      47.64        0.00     0.00   0.954
  EZG_376321                49.96       0.00       0.12       0.00      47.60       0.00      47.60        0.00     0.00   0.953
  EZG_376867                49.96       0.00       0.12       0.00      47.65       0.00      47.65        0.00     0.00   0.954
  EZG_375539                49.96       0.00       0.12       0.00      47.62       0.00      47.62        0.00     0.00   0.953
  EZG_376882                49.96       0.00       0.12       0.00      47.64       0.00      47.64        0.00     0.00   0.954
  EZG_376378                49.96       0.00       0.12       0.00      47.64       0.00      47.64        0.00     0.00   0.953
  EZG_376032                49.96       0.00       0.12       0.00      47.64       0.00      47.64        0.00     0.00   0.954
  EZG_376885                49.96       0.00       0.12       0.00      47.64       0.00      47.64        0.00     0.00   0.954
  EZG_375629                49.96       0.00       0.12       0.00      47.64       0.00      47.64        0.00     0.00   0.954
  EZG_376606                49.96       0.00       0.12       0.00      47.65       0.00      47.65        0.00     0.00   0.954
  EZG_376888                49.96       0.00       0.12       0.00      47.62       0.00      47.62        0.00     0.00   0.953
  EZG_375632                49.96       0.00       0.12       0.00      47.63       0.00      47.63        0.00     0.00   0.953
  EZG_375633                49.96       0.00       0.12       0.00      47.54       0.00      47.54        0.02     0.02   0.952
  EZG_375634                49.96       0.00       0.12       0.00      47.64       0.00      47.64        0.00     0.00   0.954
  EZG_376319                49.96       0.00       0.12       0.00      47.61       0.00      47.61        0.00     0.01   0.953
  EZG_376322                49.96       0.00       0.12       0.00      47.60       0.00      47.60        0.00     0.00   0.953
  EZG_376323                49.96       0.00       0.12       0.00      47.61       0.00      47.61        0.00     0.00   0.953
  EZG_374495                49.96       0.00       0.12       0.00      47.65       0.00      47.65        0.00     0.00   0.954
  EZG_374251                49.96       0.00       0.12       0.00      47.64       0.00      47.64        0.00     0.00   0.954
  EZG_376312                49.96       0.00       0.12       0.00      47.62       0.00      47.62        0.00     0.00   0.953
  EZG_374322                49.96       0.00       0.12       0.00      47.64       0.00      47.64        0.00     0.00   0.954
  EZG_376886                49.96       0.00       0.12       0.00      47.64       0.00      47.64        0.00     0.00   0.954
  EZG_375510                49.96       0.00       0.12       0.00      47.65       0.00      47.65        0.00     0.00   0.954
  EZG_375630                49.96       0.00       0.12       0.00      47.61       0.00      47.61        0.00     0.01   0.953
  EZG_376889                49.96       0.00       0.12       0.00      47.62       0.00      47.62        0.00     0.00   0.953
  EZG_376372                49.96       0.00       0.12       0.00      47.64       0.00      47.64        0.00     0.00   0.954
  EZG_376891                49.96       0.00       0.12       0.00      47.62       0.00      47.62        0.00     0.00   0.953
  EZG_376011                49.96       0.00       0.12       0.00      47.65       0.00      47.65        0.00     0.00   0.954
  EZG_376985                49.96       0.00       0.12       0.00      47.64       0.00      47.64        0.00     0.00   0.954
  EZG_375684                49.96       0.00       0.12       0.00      47.65       0.00      47.65        0.00     0.00   0.954
  EZG_375579                49.96       0.00       0.12       0.00      47.63       0.00      47.63        0.00     0.00   0.953
  EZG_376337                49.96       0.00       0.12       0.00      47.62       0.00      47.62        0.00     0.00   0.953
  EZG_376868                49.96       0.00       0.12       0.00      47.55       0.00      47.55        0.02     0.02   0.952
  EZG_376352                49.96       0.00       0.12       0.00      47.64       0.00      47.64        0.00     0.00   0.954
  EZG_372402                49.96       0.00       0.12       0.00      47.45       0.00      47.45        0.08     0.11   0.950
  EZG_375583                49.96       0.00       0.12       0.00      47.63       0.00      47.63        0.00     0.00   0.953
  EZG_376870                49.96       0.00       0.12       0.00      47.60       0.00      47.60        0.01     0.01   0.953
  EZG_374313                49.96       0.00       0.12       0.00      47.61       0.00      47.61        0.00     0.01   0.953
  EZG_376843                49.96       0.00       0.12       0.00      47.64       0.00      47.64        0.00     0.00   0.954
  EZG_375535                49.96       0.00       0.12       0.00      47.64       0.00      47.64        0.00     0.00   0.954
  EZG_376028                49.96       0.00       0.12       0.00      47.65       0.00      47.65        0.00     0.00   0.954
  EZG_375582                49.96       0.00       0.12       0.00      47.61       0.00      47.61        0.00     0.00   0.953
  EZG_376320                49.96       0.00       0.12       0.00      47.83       0.00      47.83        0.00     0.00   0.957
  EZG_377016                49.96       0.00       0.12       0.00      47.63       0.00      47.63        0.00     0.00   0.953
  EZG_377017                49.96       0.00       0.12       0.00      47.64       0.00      47.64        0.00     0.00   0.954
  EZG_443401                49.96       0.00       0.12       0.00      47.63       0.00      47.63        0.00     0.00   0.953
  EZG_376370                49.96       0.00       0.12       0.00      47.61       0.00      47.61        0.00     0.00   0.953
  EZG_376981                49.96       0.00       0.12       0.00      47.64       0.00      47.64        0.00     0.00   0.954
  EZG_376318                49.96       0.00       0.12       0.00      47.63       0.00      47.63        0.00     0.00   0.953
  EZG_376031                49.96       0.00       0.12       0.00      47.64       0.00      47.64        0.00     0.00   0.954
  EZG_376315                49.96       0.00       0.12       0.00      47.63       0.00      47.63        0.00     0.00   0.953
  EZG_376353                49.96       0.00       0.12       0.00      47.64       0.00      47.64        0.00     0.00   0.954
  EZG_376869                49.96       0.00       0.12       0.00      47.59       0.00      47.59        0.01     0.01   0.953
  EZG_377096                49.96       0.00       0.12       0.00      47.63       0.00      47.63        0.00     0.00   0.953
  EZG_373034                49.96       0.00       0.12       0.00      49.88       0.00      49.88        0.01     0.01   0.998
  EZG_373153                49.96       0.00       0.12       0.00      49.89       0.00      49.89        0.01     0.01   0.999
  EZG_376019                49.96       0.00       0.12       0.00      49.94       0.00      49.94        0.00     0.00   1.000
  EZG_373165                49.96       0.00       0.12       0.00      49.90       0.00      49.90        0.01     0.01   0.999
  EZG_373054                49.96       0.00       0.12       0.00      49.87       0.00      49.87        0.01     0.01   0.998
  EZG_376014                49.96       0.00       0.12       0.00      49.94       0.00      49.94        0.00     0.00   1.000
  EZG_373168                49.96       0.00       0.12       0.00      49.89       0.00      49.89        0.01     0.01   0.999
  EZG_373103                49.96       0.00       0.12       0.00      49.82       0.00      49.82        0.02     0.03   0.997
  EZG_372949                49.96       0.00       0.12       0.00      49.82       0.00      49.82        0.02     0.03   0.997
  EZG_375507                49.96       0.00       0.12       0.00      49.94       0.00      49.94        0.00     0.00   1.000
  EZG_373058                49.96       0.00       0.12       0.00      49.87       0.00      49.87        0.01     0.01   0.998
  EZG_372962                49.96       0.00       0.12       0.00      49.81       0.00      49.81        0.03     0.04   0.997
  EZG_373150                49.96       0.00       0.12       0.00      49.95       0.00      49.95        0.00     0.00   1.000
  EZG_373065                49.96       0.00       0.12       0.00      49.90       0.00      49.90        0.00     0.00   0.999
  EZG_372418                49.96       0.00       0.12       0.00      49.87       0.00      49.87        0.01     0.01   0.998
  EZG_372420                49.96       0.00       0.12       0.00      49.88       0.00      49.88        0.01     0.01   0.998
  EZG_372422                49.96       0.00       0.12       0.00      49.94       0.00      49.94        0.00     0.00   1.000
  EZG_372947                49.96       0.00       0.12       0.00      49.88       0.00      49.88        0.01     0.01   0.998
  EZG_374560                49.96       0.00       0.12       0.00      49.86       0.00      49.86        0.01     0.02   0.998
  EZG_372963                49.96       0.00       0.12       0.00      49.95       0.00      49.95        0.00     0.00   1.000
  EZG_372943                49.96       0.00       0.12       0.00      49.88       0.00      49.88        0.01     0.01   0.998
  EZG_373144                49.96       0.00       0.12       0.00      49.88       0.00      49.88        0.01     0.01   0.998
  EZG_376020                49.96       0.00       0.12       0.00      49.93       0.00      49.93        0.00     0.00   0.999
  EZG_372953                49.96       0.00       0.12       0.00      49.86       0.00      49.86        0.01     0.02   0.998
  EZG_374565                49.96       0.00       0.12       0.00      49.87       0.00      49.87        0.01     0.01   0.998
  EZG_373161                49.96       0.00       0.12       0.00      49.83       0.00      49.83        0.02     0.03   0.997
  EZG_373149                49.96       0.00       0.12       0.00      49.88       0.00      49.88        0.01     0.01   0.998
  EZG_372942                49.96       0.00       0.12       0.00      49.83       0.00      49.83        0.02     0.03   0.997
  EZG_373064                49.96       0.00       0.12       0.00      49.95       0.00      49.95        0.00     0.00   1.000
  EZG_374571                49.96       0.00       0.12       0.00      49.91       0.00      49.91        0.00     0.01   0.999
  EZG_375742                49.96       0.00       0.12       0.00      49.94       0.00      49.94        0.00     0.00   1.000
  EZG_376029                49.96       0.00       0.12       0.00      49.91       0.00      49.91        0.00     0.01   0.999
  EZG_375506                49.96       0.00       0.12       0.00      49.94       0.00      49.94        0.00     0.00   1.000
  EZG_376018                49.96       0.00       0.12       0.00      49.94       0.00      49.94        0.00     0.00   1.000
  EZG_374427                49.96       0.00       0.12       0.00      49.84       0.00      49.84        0.02     0.02   0.998
  EZG_373056                49.96       0.00       0.12       0.00      49.93       0.00      49.93        0.00     0.00   0.999
  EZG_373057                49.96       0.00       0.12       0.00      49.89       0.00      49.89        0.01     0.01   0.999
  EZG_373146                49.96       0.00       0.12       0.00      49.92       0.00      49.92        0.00     0.01   0.999
  EZG_373000                49.96       0.00       0.12       0.00      49.88       0.00      49.88        0.01     0.01   0.998
  EZG_372956                49.96       0.00       0.12       0.00      49.86       0.00      49.86        0.01     0.02   0.998
  EZG_373017                49.96       0.00       0.12       0.00      49.94       0.00      49.94        0.00     0.00   1.000
  EZG_373030                49.96       0.00       0.12       0.00      49.94       0.00      49.94        0.00     0.00   1.000
  EZG_375503                49.96       0.00       0.12       0.00      49.94       0.00      49.94        0.00     0.00   1.000
  EZG_373032                49.96       0.00       0.12       0.00      49.95       0.00      49.95        0.00     0.00   1.000
  EZG_375505                49.96       0.00       0.12       0.00      49.95       0.00      49.95        0.00     0.00   1.000
  EZG_373062                49.96       0.00       0.12       0.00      49.89       0.00      49.89        0.01     0.01   0.999
  EZG_373140                49.96       0.00       0.12       0.00      49.91       0.00      49.91        0.00     0.01   0.999
  EZG_372967                49.96       0.00       0.12       0.00      49.77       0.00      49.77        0.06     0.08   0.996
  EZG_372965                49.96       0.00       0.12       0.00      49.94       0.00      49.94        0.00     0.00   1.000
  EZG_373138                49.96       0.00       0.12       0.00      49.90       0.00      49.90        0.01     0.01   0.999
  EZG_373163                49.96       0.00       0.12       0.00      49.93       0.00      49.93        0.00     0.00   0.999
  EZG_373160                49.96       0.00       0.12       0.00      49.93       0.00      49.93        0.00     0.00   0.999
  EZG_373060                49.96       0.00       0.12       0.00      49.90       0.00      49.90        0.01     0.01   0.999
  EZG_373133                49.96       0.00       0.12       0.00      49.88       0.00      49.88        0.01     0.01   0.998
  EZG_373136                49.96       0.00       0.12       0.00      49.90       0.00      49.90        0.01     0.01   0.999
  EZG_372960                49.96       0.00       0.12       0.00      49.82       0.00      49.82        0.03     0.04   0.997
  EZG_374568                49.96       0.00       0.12       0.00      49.88       0.00      49.88        0.01     0.01   0.998
  EZG_373055                49.96       0.00       0.12       0.00      49.90       0.00      49.90        0.01     0.01   0.999
  EZG_373131                49.96       0.00       0.12       0.00      49.87       0.00      49.87        0.01     0.02   0.998
  EZG_376338                49.96       0.00       0.07       8.44      22.57      20.00      39.19        0.00     0.00   0.784
  EZG_376062                49.96       0.00       0.07       8.42      22.57      20.02      39.21        0.00     0.00   0.785
  EZG_374346                49.96       0.00       0.07       8.73      22.55      19.66      38.83        0.02     0.04   0.777
  EZG_376982                49.96       0.00       0.07       8.53      22.57      19.89      39.07        0.00     0.01   0.782
  EZG_376342                49.96       0.00       0.07       8.46      22.57      19.97      39.16        0.00     0.00   0.784
  EZG_376909                49.96       0.00       0.07       8.40      22.56      20.06      39.23        0.00     0.00   0.785
  EZG_376339                49.96       0.00       0.07       8.45      22.57      19.98      39.17        0.00     0.00   0.784
  EZG_376340                49.96       0.00       0.07       8.45      22.57      19.98      39.17        0.00     0.00   0.784
  EZG_372144                49.96       0.00       0.03      17.30       0.00      32.70      32.70        0.01     0.02   0.654
  EZG_375788                49.96       0.00       0.02      16.73       0.00      33.35      33.35        0.00     0.00   0.668
  EZG_371817                49.96       0.00       0.02      16.76       0.00      33.31      33.31        0.00     0.00   0.667
  EZG_372142                49.96       0.00       0.02      16.87       0.00      33.17      33.17        0.00     0.00   0.664
  EZG_372153                49.96       0.00       0.03      17.71       0.00      32.27      32.27        0.02     0.03   0.646
  EZG_372136                49.96       0.00       0.02      16.64       0.00      33.48      33.48        0.00     0.00   0.670
  EZG_371816                49.96       0.00       0.03      17.14       0.00      32.87      32.87        0.01     0.01   0.658
  EZG_372246                49.96       0.00       0.03      17.22       0.00      32.78      32.78        0.01     0.01   0.656
  EZG_372247                49.96       0.00       0.02      16.77       0.00      33.30      33.30        0.00     0.00   0.666
  EZG_372130                49.96       0.00       0.04      18.85       0.00      31.10      31.10        0.08     0.09   0.623
  EZG_374492                49.96       0.00       0.02      16.70       0.00      33.39      33.39        0.00     0.00   0.668
  EZG_372148                49.96       0.00       0.03      17.38       0.00      32.61      32.61        0.01     0.02   0.653
  EZG_374232                49.96       0.00       0.02      16.67       0.00      33.45      33.45        0.00     0.00   0.669
  EZG_372146                49.96       0.00       0.03      17.67       0.00      32.31      32.31        0.02     0.03   0.647
  EZG_372152                49.96       0.00       0.02      16.78       0.00      33.29      33.29        0.00     0.00   0.666
  EZG_372287                49.96       0.00       0.03      17.14       0.00      32.87      32.87        0.01     0.01   0.658
  EZG_372154                49.96       0.00       0.03      16.95       0.00      33.07      33.07        0.00     0.01   0.662
  EZG_374292                49.96       0.00       0.02      16.81       0.00      33.24      33.24        0.00     0.00   0.665
  EZG_372138                49.96       0.00       0.03      17.20       0.00      32.80      32.80        0.01     0.01   0.657
  EZG_372315                49.96       0.00       0.03      17.36       0.00      32.64      32.64        0.01     0.02   0.653
  EZG_372316                49.96       0.00       0.03      17.12       0.00      32.89      32.89        0.01     0.01   0.658
  EZG_372137                49.96       0.00       0.03      18.22       0.00      31.75      31.75        0.04     0.06   0.635
  EZG_372320                49.96       0.00       0.02      17.08       0.00      32.94      32.94        0.00     0.01   0.659
  EZG_371815                49.96       0.00       0.03      17.77       0.00      32.21      32.21        0.02     0.04   0.645
  EZG_375550                49.96       0.00       0.02      16.75       0.00      33.32      33.32        0.00     0.00   0.667
  EZG_372319                49.96       0.00       0.03      17.12       0.00      32.89      32.89        0.01     0.01   0.658
  EZG_372149                49.96       0.00       0.03      17.40       0.00      32.60      32.60        0.01     0.02   0.652
  EZG_372129                49.96       0.00       0.03      17.40       0.00      32.59      32.59        0.01     0.02   0.652
  EZG_376057                49.96       0.00       0.02      16.75       0.00      33.33      33.33        0.00     0.00   0.667
  EZG_375555                49.96       0.00       0.02      16.76       0.00      33.31      33.31        0.00     0.00   0.667
  EZG_374296                49.96       0.00       0.02      16.76       0.00      33.31      33.31        0.00     0.00   0.667
  EZG_372245                49.96       0.00       0.03      17.21       0.00      32.80      32.80        0.01     0.01   0.656
  EZG_372330                49.96       0.00       0.03      17.61       0.00      32.37      32.37        0.02     0.03   0.648
  EZG_372331                49.96       0.00       0.03      17.92       0.00      32.06      32.06        0.03     0.04   0.642
  EZG_372332                49.96       0.00       0.02      16.92       0.00      33.11      33.11        0.00     0.00   0.663
  EZG_373207                49.96       0.00       0.03      17.37       0.00      32.63      32.63        0.01     0.02   0.653
  EZG_372321                49.96       0.00       0.03      17.01       0.00      33.01      33.01        0.00     0.01   0.661
  EZG_374120                49.96       0.00       0.02      16.61       0.00      33.55      33.55        0.00     0.00   0.672
  EZG_374452                49.96       0.00       0.02      16.82       0.00      33.24      33.24        0.00     0.00   0.665
[...]
  R0019946             JUNCTION        0.14          1.520        0.000
  R0013935             JUNCTION        0.28          1.320        0.000
  R0019939             JUNCTION        0.40          1.620        0.000
  R0019944             JUNCTION        0.09          1.043        0.487
  R0043703             JUNCTION        0.10          1.220        0.100
  R0019945             JUNCTION        0.09          1.106        0.354
  R0039621             JUNCTION        0.10          1.060        0.000
  R0019838             JUNCTION        0.11          1.300        0.000
  R0039606             JUNCTION        0.09          1.990        0.010
  R0019849             JUNCTION        0.44          1.643        0.287
  R0019718             JUNCTION        0.10          1.982        0.018
  R0021442             JUNCTION        0.44          1.750        0.000
  R0019247             JUNCTION        0.25          1.860        0.000
  R0019719             JUNCTION        0.13          1.800        0.000
  R0021453             JUNCTION        0.07          1.500        0.000
  R0019839             JUNCTION        0.11          1.620        0.030
  R0019717             JUNCTION        0.10          1.728        0.122
  R0019252             JUNCTION        0.16          1.640        0.000
  R0019721             JUNCTION        0.14          1.560        0.000
  R0019942             JUNCTION        0.38          1.555        0.095
  R0019206             JUNCTION        0.06          0.536        1.174
  R0019840             JUNCTION        0.14          1.856        0.714
  R0043702             JUNCTION        0.16          2.096        0.814
  R0019723             JUNCTION        0.12          1.320        0.000
  R0019724             JUNCTION        0.12          1.447        0.003
  R0021433             JUNCTION        0.31          1.850        0.000
  R0021435             JUNCTION        0.38          1.810        0.000
  
  
  *********************
  Node Flooding Summary
  *********************
  
  Flooding refers to all water that overflows a node, whether it ponds or not.
  --------------------------------------------------------------------------
                                                             Total   Maximum
                                 Maximum   Time of Max       Flood    Ponded
                        Hours       Rate    Occurrence      Volume     Depth
  Node                 Flooded       CMS   days hr:min    10^6 ltr    Meters
  --------------------------------------------------------------------------
  R0019466                0.09     0.510      0  01:35       0.100     0.000
  R0019468                0.03     0.013      0  01:32       0.000     0.000
  R0019831                0.21     0.398      0  01:35       0.119     0.000
  R0019825                0.22     0.325      0  01:35       0.097     0.000
  R0019368                0.04     0.205      0  01:35       0.024     0.000
  R0019345                0.03     0.041      0  01:33       0.004     0.000
  R0019346                0.01     0.037      0  01:33       0.001     0.000
  R0043594                0.01     0.165      0  01:33       0.000     0.000
  R0019373                0.01     0.033      0  01:33       0.001     0.000
  R0019254                0.05     0.029      0  01:33       0.004     0.000
  R0019946                0.04     0.250      0  01:34       0.026     0.000
  R0013935                0.09     0.139      0  01:34       0.026     0.000
  R0019939                0.01     0.013      0  01:33       0.000     0.000
  R0039621                0.08     0.255      0  01:35       0.060     0.000
  R0019838                0.06     0.216      0  01:35       0.027     0.000
  R0021442                0.14     0.416      0  01:35       0.096     0.000
  R0019247                0.04     0.106      0  01:33       0.009     0.000
  R0019719                0.01     0.053      0  01:33       0.001     0.000
  R0021453                0.04     0.618      0  01:32       0.022     0.000
  R0019252                0.10     0.197      0  01:35       0.043     0.000
  R0019721                0.04     0.120      0  01:34       0.013     0.000
  R0019723                0.07     0.223      0  01:35       0.035     0.000
  R0021433                0.12     0.159      0  01:35       0.040     0.000
  R0021435                0.15     0.094      0  01:35       0.031     0.000
  
  
  **********************
  Storage Volume Summary
  **********************
  
  ------------------------------------------------------------------------------------------------
                         Average    Avg   Evap  Exfil     Maximum    Max    Time of Max    Maximum
                          Volume   Pcnt   Pcnt   Pcnt      Volume   Pcnt     Occurrence    Outflow
  Storage Unit           1000 m   Full   Loss   Loss     1000 m   Full    days hr:min        CMS
  ------------------------------------------------------------------------------------------------
  RKB                      0.073   37.9    0.0    0.0       0.130   67.4       0  01:35      4.928
  
  
  ***********************
  Outfall Loading Summary
  ***********************
  
  -----------------------------------------------------------
                         Flow       Avg       Max       Total
                         Freq      Flow      Flow      Volume
  Outfall Node           Pcnt       CMS       CMS    10^6 ltr
  -----------------------------------------------------------
  W1                    14.88     0.726     2.399       1.725
  R0019769              68.92     0.141     0.300       1.569
  -----------------------------------------------------------
  System                41.90     0.867     2.699       3.293
  
  
  ********************
  Link Flow Summary
  ********************
  
  -----------------------------------------------------------------------------
                                 Maximum  Time of Max   Maximum    Max/    Max/
                                  |Flow|   Occurrence   |Veloc|    Full    Full
  Link                 Type          CMS  days hr:min     m/sec    Flow   Depth
  -----------------------------------------------------------------------------
  H0014431             CONDUIT     0.165     0  01:31      2.33    3.05    1.00
  H0014433             CONDUIT     0.100     0  01:38      1.42    1.28    1.00
  H0014352             CONDUIT     2.733     0  01:33      4.30    1.12    1.00
  H0014373             CONDUIT     2.635     0  01:33      4.32    1.22    1.00
  H0017981             CONDUIT     0.148     0  01:31      2.09    4.18    1.00
  H0017755             CONDUIT     0.240     0  01:33      1.91    1.94    1.00
  H0017791             CONDUIT     0.565     0  01:35      0.89    0.82    1.00
  H0017357             CONDUIT     0.211     0  01:32      2.98    3.37    1.00
  H0018216             CONDUIT     0.157     0  01:31      2.22    2.86    1.00
  H0016792             CONDUIT     2.032     0  01:34      3.19    1.17    1.00
  H0019507             CONDUIT     0.089     0  01:31      1.25    1.23    1.00
  H0019998             CONDUIT     2.117     0  01:33      3.48    0.85    1.00
  H0019576             CONDUIT     1.917     0  01:35      3.01    1.29    1.00
  H0020087             CONDUIT     0.255     0  01:35      1.30    1.12    1.00
  H0020211             CONDUIT     1.819     0  01:35      2.86    4.53    1.00
  H0018982             CONDUIT     0.736     0  01:35      1.16    1.18    1.00
  H0018753             CONDUIT     0.125     0  01:31      1.77    1.77    1.00
  H0018845             CONDUIT     0.000     0  00:00      0.00    0.00    0.27
  H0018863             CONDUIT     0.123     0  01:31      1.74    2.90    1.00
  H0019156             CONDUIT     0.000     0  00:00      0.00    0.00    0.00
  H0018929             CONDUIT     0.966     0  01:35      1.52    0.84    1.00
  H0018440             CONDUIT     0.165     0  01:30      2.34    2.96    1.00
  H0018456             CONDUIT     0.288     0  01:32      2.29    1.75    1.00
  H0018968             CONDUIT     2.610     0  01:33      6.49    1.00    0.76
  H0022036             CONDUIT     0.683     0  01:32      1.07    0.53    1.00
  H0021806             CONDUIT     0.207     0  01:32      1.65    1.84    1.00
  H0022111             CONDUIT     0.180     0  01:35      0.92    1.29    1.00
  H0021440             CONDUIT     1.705     0  01:34      2.68    1.10    1.00
  H0021704             CONDUIT     1.179     0  01:35      1.85    2.25    1.00
  H0020521             CONDUIT     0.087     0  01:31      1.22    1.75    1.00
  H0020755             CONDUIT     0.158     0  01:32      1.26    1.74    1.00
  H0020530             CONDUIT     2.700     0  01:33      4.24    2.31    1.00
  H0020618             CONDUIT     1.984     0  01:33      3.35    1.23    1.00
  H0021163             CONDUIT     0.134     0  01:26      1.90    2.24    1.00
  H0020497             CONDUIT     0.090     0  01:32      1.27    0.20    1.00
  H0024325             CONDUIT     0.367     0  01:32      1.87    1.09    1.00
  H0023585             CONDUIT     0.716     0  01:32      3.64    1.65    1.00
  H0024098             CONDUIT     0.217     0  01:31      3.07    2.53    1.00
  H0024235             CONDUIT     0.406     0  01:32      2.07    1.66    1.00
  H0024282             CONDUIT     0.030     0  01:33      0.69    0.29    1.00
  H0024498             CONDUIT     0.197     0  01:31      2.78    3.05    1.00
  H0026990             CONDUIT     0.162     0  01:32      1.29    1.22    1.00
  H0041650             CONDUIT     0.918     0  01:35      1.44    1.07    1.00
  H0041011             CONDUIT     0.132     0  01:26      1.87    1.31    1.00
  H0045103             CONDUIT     0.747     0  01:35      1.17    0.94    1.00
  H0045104             CONDUIT     2.618     0  01:33      4.85    0.93    0.79
  H0045105             CONDUIT     0.064     0  01:31      0.91    1.11    1.00
  H0045106             CONDUIT     0.496     0  01:31      2.53    0.67    1.00
  H0045107             CONDUIT     0.072     0  01:37      1.01    1.18    1.00
  H0045108             CONDUIT     0.088     0  01:39      1.24    1.58    1.00
  1                    CONDUIT     2.645     0  01:34      3.83    0.02    0.83
  3                    CONDUIT     0.300     0  01:25      1.53    0.19    1.00
  W1                   WEIR        2.399     0  01:34                      0.20
  W2                   WEIR        2.797     0  01:32                      0.74
  
  
  ***************************
  Flow Classification Summary
  ***************************
  
  -------------------------------------------------------------------------------------
                      Adjusted    ---------- Fraction of Time in Flow Class ---------- 
                       /Actual         Up    Down  Sub   Sup   Up    Down  Norm  Inlet 
  Conduit               Length    Dry  Dry   Dry   Crit  Crit  Crit  Crit  Ltd   Ctrl  
  -------------------------------------------------------------------------------------
  H0014431                1.00   0.24  0.00  0.00  0.76  0.00  0.00  0.00  0.42  0.00
  H0014433                1.00   0.24  0.00  0.00  0.76  0.00  0.00  0.00  0.66  0.00
  H0014352                1.00   0.24  0.00  0.00  0.25  0.51  0.00  0.00  0.67  0.00
  H0014373                1.00   0.25  0.00  0.00  0.02  0.73  0.00  0.00  0.03  0.00
  H0017981                1.00   0.25  0.00  0.00  0.04  0.00  0.00  0.71  0.00  0.00
  H0017755                1.00   0.26  0.00  0.00  0.07  0.00  0.00  0.67  0.00  0.00
  H0017791                1.00   0.26  0.00  0.00  0.74  0.00  0.00  0.00  0.61  0.00
  H0017357                1.00   0.28  0.63  0.00  0.04  0.00  0.05  0.00  0.00  0.00
  H0018216                1.00   0.24  0.00  0.00  0.75  0.01  0.00  0.00  0.64  0.00
  H0016792                1.00   0.24  0.00  0.00  0.72  0.03  0.00  0.00  0.61  0.00
  H0019507                1.00   0.24  0.00  0.00  0.75  0.00  0.00  0.00  0.66  0.00
  H0019998                1.00   0.24  0.00  0.00  0.03  0.73  0.00  0.00  0.64  0.00
  H0019576                1.00   0.24  0.00  0.00  0.38  0.38  0.00  0.00  0.46  0.00
  H0020087                1.00   0.26  0.41  0.00  0.34  0.00  0.00  0.00  0.57  0.00
  H0020211                1.00   0.24  0.00  0.00  0.76  0.00  0.00  0.00  0.01  0.00
  H0018982                1.00   0.26  0.00  0.00  0.74  0.00  0.00  0.00  0.00  0.00
  H0018753                1.00   0.24  0.04  0.00  0.72  0.00  0.00  0.00  0.65  0.00
  H0018845                1.00   0.35  0.65  0.00  0.00  0.00  0.00  0.00  0.00  0.00
  H0018863                1.00   0.24  0.00  0.00  0.76  0.00  0.00  0.00  0.43  0.00
  H0019156                1.00   1.00  0.00  0.00  0.00  0.00  0.00  0.00  0.00  0.00
  H0018929                1.00   0.24  0.02  0.00  0.74  0.00  0.00  0.00  0.60  0.00
  H0018440                1.00   0.26  0.00  0.00  0.73  0.01  0.00  0.00  0.47  0.00
  H0018456                1.00   0.24  0.01  0.00  0.74  0.01  0.00  0.00  0.59  0.00
  H0018968                1.00   0.25  0.00  0.00  0.08  0.67  0.00  0.00  0.18  0.00
  H0022036                1.00   0.26  0.00  0.00  0.39  0.00  0.00  0.36  0.33  0.00
  H0021806                1.00   0.26  0.00  0.00  0.73  0.01  0.00  0.00  0.41  0.00
  H0022111                1.00   0.26  0.00  0.00  0.74  0.00  0.00  0.00  0.00  0.00
  H0021440                1.00   0.24  0.00  0.00  0.25  0.51  0.00  0.00  0.35  0.00
  H0021704                1.00   0.24  0.00  0.00  0.07  0.00  0.00  0.69  0.00  0.00
  H0020521                1.00   0.24  0.00  0.00  0.75  0.01  0.00  0.00  0.67  0.00
  H0020755                1.00   0.24  0.00  0.00  0.76  0.00  0.00  0.00  0.46  0.00
  H0020530                1.00   0.24  0.00  0.00  0.29  0.47  0.00  0.00  0.23  0.00
  H0020618                1.00   0.24  0.00  0.00  0.09  0.66  0.00  0.00  0.33  0.00
  H0021163                1.00   0.24  0.00  0.00  0.60  0.16  0.00  0.00  0.00  0.00
  H0020497                1.20   0.24  0.63  0.00  0.13  0.00  0.00  0.00  0.64  0.00
  H0024325                1.00   0.24  0.01  0.00  0.41  0.33  0.00  0.00  0.64  0.00
  H0023585                1.00   0.24  0.00  0.00  0.03  0.00  0.00  0.72  0.00  0.00
  H0024098                1.00   0.24  0.00  0.00  0.72  0.03  0.00  0.00  0.53  0.00
  H0024235                1.00   0.24  0.00  0.00  0.06  0.00  0.00  0.70  0.01  0.00
  H0024282                1.00   0.34  0.01  0.00  0.60  0.05  0.00  0.00  0.01  0.00
  H0024498                1.00   0.24  0.00  0.00  0.03  0.00  0.00  0.73  0.00  0.00
  H0026990                1.00   0.24  0.00  0.00  0.75  0.01  0.00  0.00  0.70  0.00
  H0041650                1.00   0.26  0.00  0.00  0.74  0.00  0.00  0.00  0.41  0.00
  H0041011                1.00   0.24  0.00  0.00  0.38  0.37  0.00  0.00  0.42  0.00
  H0045103                1.00   0.26  0.00  0.00  0.74  0.00  0.00  0.00  0.14  0.00
  H0045104                1.00   0.25  0.00  0.00  0.00  0.75  0.00  0.00  0.67  0.00
  H0045105                1.00   0.24  0.17  0.00  0.59  0.00  0.00  0.00  0.64  0.00
  H0045106                1.00   0.24  0.00  0.00  0.16  0.60  0.00  0.00  0.65  0.00
  H0045107                1.00   0.26  0.00  0.00  0.73  0.01  0.00  0.00  0.63  0.00
  H0045108                1.00   0.26  0.00  0.00  0.74  0.00  0.00  0.00  0.62  0.00
  1                       7.52   0.25  0.00  0.00  0.71  0.04  0.00  0.00  0.45  0.00
  3                       1.00   0.31  0.00  0.00  0.42  0.27  0.00  0.00  0.02  0.00
  
  
  *************************
  Conduit Surcharge Summary
  *************************
  
  ----------------------------------------------------------------------------
                                                           Hours        Hours 
                         --------- Hours Full --------   Above Full   Capacity
  Conduit                Both Ends  Upstream  Dnstream   Normal Flow   Limited
  ----------------------------------------------------------------------------
  H0014431                    0.41      0.49      0.41      0.55         0.47
  H0014433                    0.36      0.36      0.42      0.26         0.25
  H0014352                    0.14      0.14      0.17      0.07         0.06
  H0014373                    0.01      0.08      0.01      0.12         0.05
  H0017981                    0.15      0.16      0.15      0.34         0.14
  H0017755                    0.17      0.19      0.17      0.22         0.14
  H0017791                    0.08      0.08      0.09      0.01         0.01
  H0017357                    0.15      0.15      0.29      0.20         0.01
  H0018216                    0.16      0.20      0.16      0.24         0.18
  H0016792                    0.11      0.11      0.14      0.04         0.04
  H0019507                    0.28      0.28      0.40      0.03         0.02
  H0019998                    0.09      0.09      0.14      0.01         0.01
  H0019576                    0.09      0.10      0.09      0.11         0.07
  H0020087                    0.10      0.10      0.11      0.05         0.01
  H0020211                    0.10      0.14      0.10      0.37         0.11
  H0018982                    0.09      0.09      0.09      0.03         0.03
  H0018753                    0.29      0.29      0.49      0.07         0.01
  H0018863                    0.40      0.40      0.44      0.19         0.18
  H0018929                    0.09      0.09      0.10      0.01         0.01
  H0018440                    0.30      0.44      0.30      0.47         0.36
  H0018456                    0.14      0.14      0.15      0.08         0.08
  H0018968                    0.01      0.01      0.01      0.01         0.01
  H0022036                    0.07      0.07      0.08      0.01         0.01
  H0021806                    0.19      0.25      0.19      0.23         0.19
  H0022111                    0.11      0.11      0.11      0.03         0.03
  H0021440                    0.10      0.10      0.11      0.04         0.04
  H0021704                    0.10      0.10      0.10      0.19         0.09
  H0020521                    0.16      0.16      0.20      0.06         0.06
  H0020755                    0.14      0.14      0.14      0.06         0.04
  H0020530                    0.08      0.17      0.08      0.24         0.16
  H0020618                    0.09      0.09      0.09      0.12         0.08
  H0021163                    0.38      0.42      0.38      0.40         0.33
  H0020497                    0.06      0.06      0.30      0.01         0.01
  H0024325                    0.11      0.11      0.14      0.01         0.01
  H0023585                    0.15      0.16      0.15      0.16         0.15
  H0024098                    0.44      0.44      0.48      0.38         0.36
  H0024235                    0.13      0.13      0.14      0.07         0.07
  H0024282                    0.01      0.01      0.05      0.01         0.01
  H0024498                    0.15      0.41      0.15      0.51         0.30
  H0026990                    0.12      0.12      0.14      0.01         0.02
  H0041650                    0.09      0.09      0.09      0.01         0.03
  H0041011                    0.38      0.38      0.44      0.18         0.16
  H0045103                    0.09      0.09      0.09      0.01         0.02
  H0045105                    0.12      0.12      0.13      0.01         0.01
  H0045106                    0.14      0.14      0.16      0.01         0.01
  H0045107                    0.31      0.31      0.38      0.14         0.13
  H0045108                    0.38      0.38      0.44      0.27         0.26
  1                           0.01      0.01      3.10      0.01         0.01
  3                           0.01      1.11      0.01      0.01         0.93
  

  Analysis begun on:  Tue May 28 17:01:57 2024
  Analysis ended on:  Tue May 28 17:01:58 2024
  Total elapsed time: 00:00:01