
  EPA STORM WATER MANAGEMENT MODEL - VERSION 5.2 (Build 5.2.4)
  PYSWMM TOOLKIT API - VERSION v1.0 (2023-11-27)
  ------------------------------------------------------------

  Gievenbeck_2015-01-15 04 25 00_hN2 34 
  
  ****************
  Analysis Options
  ****************
  Flow Units ............... CMS
  Process Models:
    Rainfall/Runoff ........ YES
    RDII ................... NO
    Snowmelt ............... NO
    Groundwater ............ NO
    Flow Routing ........... YES
    Ponding Allowed ........ NO
    Water Quality .......... NO
  Infiltration Method ...... HORTON
  Flow Routing Method ...... DYNWAVE
  Surcharge Method ......... SLOT
  Starting Date ............ 01/01/2024 00:00:00
  Ending Date .............. 01/04/2024 04:00:00
  Antecedent Dry Days ...... 14.0
  Report Time Step ......... 00:01:00
  Wet Time Step ............ 00:01:00
  Dry Time Step ............ 00:01:00
  Routing Time Step ........ 1.00 sec
  Variable Time Step ....... YES
  Maximum Trials ........... 8
  Number of Threads ........ 4
  Head Tolerance ........... 0.001500 m
  
  
  **************************        Volume         Depth
  Runoff Quantity Continuity     hectare-m            mm
  **************************     ---------       -------
  Total Precipitation ......         0.024         2.340
  Evaporation Loss .........         0.011         1.107
  Infiltration Loss ........         0.012         1.173
  Surface Runoff ...........         0.001         0.059
  Final Storage ............         0.000         0.000
  Continuity Error (%) .....         0.000
  
  
  **************************        Volume        Volume
  Flow Routing Continuity        hectare-m      10^6 ltr
  **************************     ---------     ---------
  Dry Weather Inflow .......         0.000         0.000
  Wet Weather Inflow .......         0.001         0.006
  Groundwater Inflow .......         0.000         0.000
  RDII Inflow ..............         0.000         0.000
  External Inflow ..........         0.000         0.000
  External Outflow .........         0.001         0.006
  Flooding Loss ............         0.000         0.000
  Evaporation Loss .........         0.000         0.000
  Exfiltration Loss ........         0.000         0.000
  Initial Stored Volume ....         0.000         0.000
  Final Stored Volume ......         0.000         0.000
  Continuity Error (%) .....         0.000
  
  
  ***************************
  Time-Step Critical Elements
  ***************************
  None
  
  
  ********************************
  Highest Flow Instability Indexes
  ********************************
  All links are stable.
  
  
  *********************************
  Most Frequent Nonconverging Nodes
  *********************************
  Convergence obtained at all time steps.
  
  
  *************************
  Routing Time Step Summary
  *************************
  Minimum Time Step           :     0.50 sec
  Average Time Step           :     1.00 sec
  Maximum Time Step           :     1.00 sec
  % of Time in Steady State   :     0.00
  Average Iterations per Step :     2.00
  % of Steps Not Converging   :     0.00
  Time Step Frequencies       :
      1.000 -  0.871 sec      :   100.00 %
      0.871 -  0.758 sec      :     0.00 %
      0.758 -  0.660 sec      :     0.00 %
      0.660 -  0.574 sec      :     0.00 %
      0.574 -  0.500 sec      :     0.00 %
  
  
  ***************************
  Subcatchment Runoff Summary
  ***************************
  
  ------------------------------------------------------------------------------------------------------------------------------
                            Total      Total      Total      Total     Imperv       Perv      Total       Total     Peak  Runoff
                           Precip      Runon       Evap      Infil     Runoff     Runoff     Runoff      Runoff   Runoff   Coeff
  Subcatchment                 mm         mm         mm         mm         mm         mm         mm    10^6 ltr      CMS
  ------------------------------------------------------------------------------------------------------------------------------
  EZG_368                    2.34       0.00       1.10       1.18       0.07       0.00       0.06        0.00     0.00   0.025
  EZG_392                    2.34       0.00       1.10       1.18       0.07       0.00       0.06        0.00     0.00   0.026
  EZG_352                    2.34       0.00       1.10       1.18       0.07       0.00       0.06        0.00     0.00   0.024
  EZG_372                    2.34       0.00       1.09       1.18       0.08       0.00       0.07        0.00     0.00   0.028
  EZG_416                    2.34       0.00       1.10       1.18       0.07       0.00       0.06        0.00     0.00   0.026
  EZG_388                    2.34       0.00       1.10       1.18       0.07       0.00       0.06        0.00     0.00   0.025
  EZG_394                    2.34       0.00       1.10       1.18       0.07       0.00       0.06        0.00     0.00   0.026
  EZG_400                    2.34       0.00       1.10       1.18       0.07       0.00       0.06        0.00     0.00   0.027
  EZG_390                    2.34       0.00       1.10       1.18       0.07       0.00       0.06        0.00     0.00   0.026
  EZG_350                    2.34       0.00       1.10       1.18       0.07       0.00       0.06        0.00     0.00   0.025
  EZG_370                    2.34       0.00       1.10       1.18       0.07       0.00       0.06        0.00     0.00   0.026
  EZG_398                    2.34       0.00       1.09       1.18       0.08       0.00       0.07        0.00     0.00   0.029
  EZG_382                    2.34       0.00       1.09       1.18       0.08       0.00       0.07        0.00     0.00   0.029
  EZG_374                    2.34       0.00       1.32       0.95       0.08       0.00       0.07        0.00     0.00   0.029
  EZG_412                    2.34       0.00       1.09       1.18       0.09       0.00       0.07        0.00     0.00   0.031
  EZG_344                    2.34       0.00       1.10       1.18       0.07       0.00       0.06        0.00     0.00   0.027
  EZG_376                    2.34       0.00       1.10       1.18       0.07       0.00       0.06        0.00     0.00   0.027
  EZG_356                    2.34       0.00       1.10       1.18       0.07       0.00       0.06        0.00     0.00   0.024
  EZG_386                    2.34       0.00       1.11       1.18       0.06       0.00       0.05        0.00     0.00   0.023
  EZG_380                    2.34       0.00       1.10       1.18       0.07       0.00       0.06        0.00     0.00   0.025
  EZG_378                    2.34       0.00       1.10       1.18       0.07       0.00       0.06        0.00     0.00   0.026
  EZG_414                    2.34       0.00       1.09       1.18       0.08       0.00       0.07        0.00     0.00   0.029
  EZG_402                    2.34       0.00       1.10       1.18       0.07       0.00       0.06        0.00     0.00   0.026
  EZG_358                    2.34       0.00       1.10       1.18       0.07       0.00       0.06        0.00     0.00   0.024
  EZG_364                    2.34       0.00       1.10       1.18       0.07       0.00       0.06        0.00     0.00   0.024
  EZG_410                    2.34       0.00       1.10       1.18       0.07       0.00       0.06        0.00     0.00   0.027
  EZG_366                    2.34       0.00       1.10       1.18       0.07       0.00       0.06        0.00     0.00   0.027
  EZG_18259                  2.34       0.00       1.10       1.18       0.07       0.00       0.06        0.00     0.00   0.027
  EZG_18258                  2.34       0.00       1.09       1.18       0.08       0.00       0.07        0.00     0.00   0.030
  EZG_346                    2.34       0.00       1.08       1.20       0.07       0.00       0.06        0.00     0.00   0.025
  EZG_348                    2.34       0.00       1.07       1.20       0.07       0.00       0.06        0.00     0.00   0.027
  
  
  ******************
  Node Depth Summary
  ******************
  
  ---------------------------------------------------------------------------------
                                 Average  Maximum  Maximum  Time of Max    Reported
                                   Depth    Depth      HGL   Occurrence   Max Depth
  Node                 Type       Meters   Meters   Meters  days hr:min      Meters
  ---------------------------------------------------------------------------------
  R0019466             JUNCTION     0.00     0.01    69.46     0  12:12        0.01
  R0019468             JUNCTION     0.00     0.02    69.33     0  12:14        0.02
  R0019831             JUNCTION     0.00     0.01    69.18     0  12:10        0.01
  R0019825             JUNCTION     0.00     0.01    68.85     0  12:12        0.01
  R0019843             JUNCTION     0.00     0.02    67.65     0  12:20        0.02
  R0019368             JUNCTION     0.00     0.03    66.82     0  12:22        0.03
  R0019369             JUNCTION     0.00     0.02    66.61     0  12:23        0.02
  R0019370             JUNCTION     0.00     0.02    65.92     0  12:24        0.02
  R0019345             JUNCTION     0.00     0.02    69.92     0  12:15        0.02
  R0019346             JUNCTION     0.00     0.01    69.81     0  12:16        0.01
  R0043600             JUNCTION     0.00     0.02    69.69     0  12:18        0.02
  R0019203             JUNCTION     0.00     0.02    69.56     0  12:20        0.02
  R0043594             JUNCTION     0.00     0.01    69.74     0  12:12        0.01
  R0021458             JUNCTION     0.00     0.02    69.67     0  12:15        0.02
  R0019202             JUNCTION     0.00     0.01    69.59     0  12:19        0.01
  R0019373             JUNCTION     0.00     0.01    69.68     0  12:11        0.01
  R0019254             JUNCTION     0.00     0.01    70.05     0  12:12        0.01
  R0019716             JUNCTION     0.00     0.02    69.03     0  12:23        0.02
  R0019946             JUNCTION     0.00     0.04    68.66     0  12:27        0.04
  R0013935             JUNCTION     0.00     0.01    68.84     0  12:10        0.01
  R0019939             JUNCTION     0.00     0.01    68.58     0  12:12        0.01
  R0019944             JUNCTION     0.00     0.02    68.30     0  12:26        0.02
  R0043703             JUNCTION     0.00     0.02    68.62     0  12:28        0.02
  R0019945             JUNCTION     0.00     0.02    68.42     0  12:26        0.02
  R0039621             JUNCTION     0.00     0.00    69.57     0  00:00        0.00
  R0019838             JUNCTION     0.00     0.01    69.47     0  12:12        0.01
  R0039606             JUNCTION     0.00     0.01    69.60     0  12:19        0.01
  R0019204             JUNCTION     0.00     0.00    69.91     0  00:00        0.00
  R0019205             JUNCTION     0.00     0.00    69.62     0  00:00        0.00
  R0019849             JUNCTION     0.00     0.01    68.53     0  12:14        0.01
  R0019371             JUNCTION     0.00     0.00    70.41     0  00:00        0.00
  R0019718             JUNCTION     0.00     0.04    69.46     0  12:26        0.04
  R0021442             JUNCTION     0.00     0.02    70.07     0  12:13        0.02
  R0019247             JUNCTION     0.00     0.02    69.90     0  12:14        0.02
  R0019719             JUNCTION     0.00     0.02    69.70     0  12:17        0.02
  R0019767             JUNCTION     0.00     0.02    64.75     0  12:25        0.02
  R0019768             JUNCTION     0.00     0.02    63.79     0  12:26        0.02
  R0021453             JUNCTION     0.00     0.01    69.96     0  12:10        0.01
  R0019839             JUNCTION     0.00     0.01    69.40     0  12:12        0.01
  R0019717             JUNCTION     0.00     0.02    69.36     0  12:22        0.02
  R0019252             JUNCTION     0.00     0.01    70.20     0  12:11        0.01
  R0019721             JUNCTION     0.00     0.01    69.88     0  12:13        0.01
  R0019942             JUNCTION     0.00     0.01    68.66     0  12:13        0.01
  R0019206             JUNCTION     0.00     0.00    69.07     0  00:00        0.00
  R0019840             JUNCTION     0.00     0.01    68.98     0  12:14        0.01
  R0043702             JUNCTION     0.00     0.02    68.72     0  12:14        0.02
  R0019723             JUNCTION     0.00     0.01    70.09     0  12:11        0.01
  R0019724             JUNCTION     0.00     0.01    70.17     0  12:10        0.01
  R0021433             JUNCTION     0.00     0.01    70.40     0  12:10        0.01
  R0021435             JUNCTION     0.00     0.01    70.19     0  12:12        0.01
  R0019769             OUTFALL      0.00     0.02    63.40     0  12:26        0.02
  
  
  *******************
  Node Inflow Summary
  *******************
  
  -------------------------------------------------------------------------------------------------
                                  Maximum  Maximum                  Lateral       Total        Flow
                                  Lateral    Total  Time of Max      Inflow      Inflow     Balance
                                   Inflow   Inflow   Occurrence      Volume      Volume       Error
  Node                 Type           CMS      CMS  days hr:min    10^6 ltr    10^6 ltr     Percent
  -------------------------------------------------------------------------------------------------
  R0019466             JUNCTION     0.000    0.000     0  12:10    0.000243    0.000458      -0.098
  R0019468             JUNCTION     0.000    0.000     0  12:10     0.00015    0.000608       0.302
  R0019831             JUNCTION     0.000    0.000     0  12:10    0.000196    0.000196      -0.200
  R0019825             JUNCTION     0.000    0.000     0  12:10    0.000197    0.000393       0.033
  R0019843             JUNCTION     0.000    0.002     0  12:19           0     0.00601      -0.063
  R0019368             JUNCTION     0.000    0.002     0  12:20           0     0.00601       0.011
  R0019369             JUNCTION     0.000    0.002     0  12:22           0     0.00601       0.010
  R0019370             JUNCTION     0.000    0.002     0  12:23           0     0.00601       0.009
  R0019345             JUNCTION     0.000    0.000     0  12:12           0    0.000387       0.991
  R0019346             JUNCTION     0.000    0.000     0  12:14    2.89e-05    0.000665       0.218
  R0043600             JUNCTION     0.000    0.000     0  12:16           0    0.000741       0.704
  R0019203             JUNCTION     0.000    0.001     0  12:18    6.05e-05     0.00164      -0.336
  R0043594             JUNCTION     0.000    0.000     0  12:10    0.000332    0.000489      -0.528
  R0021458             JUNCTION     0.000    0.000     0  12:10    0.000267    0.000758      -0.082
  R0019202             JUNCTION     0.000    0.000     0  12:18    8.94e-05    0.000845      -0.043
  R0019373             JUNCTION     0.000    0.000     0  12:10    0.000215    0.000215      -0.146
  R0019254             JUNCTION     0.000    0.000     0  12:10    0.000178    0.000385      -0.651
  R0019716             JUNCTION     0.000    0.001     0  12:22    0.000265     0.00336      -0.194
  R0019946             JUNCTION     0.000    0.001     0  12:23           0     0.00337       0.230
  R0013935             JUNCTION     0.000    0.000     0  12:10    0.000171    0.000171      -0.108
  R0019939             JUNCTION     0.000    0.000     0  12:10    6.72e-05    0.000238      -0.074
  R0019944             JUNCTION     0.000    0.001     0  12:26     0.00016     0.00434       0.032
  R0043703             JUNCTION     0.000    0.001     0  12:27    0.000192     0.00355       0.009
  R0019945             JUNCTION     0.000    0.001     0  12:25           0     0.00418       0.013
  R0039621             JUNCTION     0.000    0.000     0  00:00           0           0       0.000 ltr
  R0019838             JUNCTION     0.000    0.000     0  12:10    0.000356    0.000356       0.111
  R0039606             JUNCTION     0.000    0.000     0  12:16           0    0.000759       0.449
  R0019204             JUNCTION     0.000    0.000     0  00:00           0           0       0.000 ltr
  R0019205             JUNCTION     0.000    0.000     0  00:00           0           0       0.000 ltr
  R0019849             JUNCTION     0.000    0.000     0  12:13           0     0.00063      -0.039
  R0019371             JUNCTION     0.000    0.000     0  00:00           0           0       0.000 ltr
  R0019718             JUNCTION     0.000    0.001     0  12:19    0.000231     0.00188       0.389
  R0021442             JUNCTION     0.000    0.000     0  12:10    0.000258     0.00061      -0.029
  R0019247             JUNCTION     0.000    0.000     0  12:12    0.000127    0.000738      -0.503
  R0019719             JUNCTION     0.000    0.000     0  12:14    0.000133    0.000797       0.073
  R0019767             JUNCTION     0.000    0.002     0  12:24           0     0.00601       0.007
  R0019768             JUNCTION     0.000    0.002     0  12:25           0     0.00601       0.013
  R0021453             JUNCTION     0.000    0.000     0  12:10    0.000157    0.000157       0.119
  R0019839             JUNCTION     0.000    0.000     0  12:10    0.000353    0.000708      -0.137
  R0019717             JUNCTION     0.000    0.001     0  12:22     0.00043      0.0031       0.001
  R0019252             JUNCTION     0.000    0.000     0  12:10    0.000206    0.000206      -0.170
  R0019721             JUNCTION     0.000    0.000     0  12:10    5.96e-05    0.000252      -0.274
  R0019942             JUNCTION     0.000    0.000     0  12:12           0    0.000393       0.196
  R0019206             JUNCTION     0.000    0.000     0  00:00           0           0       0.000 ltr
  R0019840             JUNCTION     0.000    0.001     0  12:13           0     0.00132       0.050
  R0043702             JUNCTION     0.000    0.001     0  12:13    0.000353     0.00167       0.028
  R0019723             JUNCTION     0.000    0.000     0  12:10    0.000149    0.000192      -0.231
  R0019724             JUNCTION     0.000    0.000     0  12:10     4.3e-05     4.3e-05       0.382
  R0021433             JUNCTION     0.000    0.000     0  12:10    0.000214    0.000214      -0.187
  R0021435             JUNCTION     0.000    0.000     0  12:10    0.000138    0.000352       0.129
  R0019769             OUTFALL      0.000    0.002     0  12:26           0     0.00601       0.000
  
  
  **********************
  Node Surcharge Summary
  **********************
  
  No nodes were surcharged.
  
  
  *********************
  Node Flooding Summary
  *********************
  
  No nodes were flooded.
  
  
  ***********************
  Outfall Loading Summary
  ***********************
  
  -----------------------------------------------------------
                         Flow       Avg       Max       Total
                         Freq      Flow      Flow      Volume
  Outfall Node           Pcnt       CMS       CMS    10^6 ltr
  -----------------------------------------------------------
  R0019769               3.41     0.001     0.002       0.006
  -----------------------------------------------------------
  System                 3.41     0.001     0.002       0.006
  
  
  ********************
  Link Flow Summary
  ********************
  
  -----------------------------------------------------------------------------
                                 Maximum  Time of Max   Maximum    Max/    Max/
                                  |Flow|   Occurrence   |Veloc|    Full    Full
  Link                 Type          CMS  days hr:min     m/sec    Flow   Depth
  -----------------------------------------------------------------------------
  H0014431             CONDUIT     0.000     0  12:12      0.18    0.00    0.05
  H0014433             CONDUIT     0.000     0  12:10      0.13    0.00    0.04
  H0014352             CONDUIT     0.002     0  12:20      0.42    0.00    0.03
  H0014373             CONDUIT     0.002     0  12:23      0.56    0.00    0.02
  H0017981             CONDUIT     0.000     0  12:15      0.15    0.01    0.05
  H0017755             CONDUIT     0.000     0  12:18      0.27    0.00    0.03
  H0017791             CONDUIT     0.000     0  12:12      0.10    0.00    0.02
  H0017357             CONDUIT     0.000     0  00:00      0.00    0.00    0.02
  H0018216             CONDUIT     0.000     0  12:12      0.13    0.00    0.05
  H0016792             CONDUIT     0.001     0  12:23      0.19    0.00    0.03
  H0019507             CONDUIT     0.000     0  12:10      0.13    0.00    0.03
  H0019998             CONDUIT     0.001     0  12:26      0.46    0.00    0.02
  H0019576             CONDUIT     0.001     0  12:28      0.33    0.00    0.02
  H0020087             CONDUIT     0.000     0  00:00      0.00    0.00    0.01
  H0020211             CONDUIT     0.001     0  12:27      0.17    0.00    0.03
  H0018982             CONDUIT     0.000     0  12:16      0.13    0.00    0.02
  H0018753             CONDUIT     0.000     0  12:11      0.13    0.00    0.04
  H0018845             CONDUIT     0.000     0  00:00      0.00    0.00    0.00
  H0018863             CONDUIT     0.000     0  12:12      0.13    0.00    0.04
  H0019156             CONDUIT     0.000     0  00:00      0.00    0.00    0.00
  H0018929             CONDUIT     0.001     0  12:20      0.13    0.00    0.03
  H0018440             CONDUIT     0.000     0  12:13      0.20    0.01    0.05
  H0018456             CONDUIT     0.000     0  12:16      0.22    0.00    0.04
  H0018968             CONDUIT     0.002     0  12:25      0.64    0.00    0.02
  H0022036             CONDUIT     0.000     0  12:10      0.22    0.00    0.00
  H0021806             CONDUIT     0.000     0  12:16      0.20    0.00    0.04
  H0022111             CONDUIT     0.000     0  12:12      0.12    0.00    0.03
  H0021440             CONDUIT     0.001     0  12:23      0.35    0.00    0.02
  H0021704             CONDUIT     0.001     0  12:26      0.17    0.00    0.02
  H0020521             CONDUIT     0.000     0  12:11      0.12    0.00    0.04
  H0020755             CONDUIT     0.000     0  12:13      0.12    0.00    0.03
  H0020530             CONDUIT     0.002     0  12:22      0.39    0.00    0.03
  H0020618             CONDUIT     0.001     0  12:26      0.43    0.00    0.02
  H0021163             CONDUIT     0.000     0  12:12      0.22    0.00    0.04
  H0020497             CONDUIT     0.000     0  00:00      0.00    0.00    0.03
  H0024325             CONDUIT     0.000     0  12:13      0.28    0.00    0.02
  H0023585             CONDUIT     0.001     0  12:14      0.42    0.00    0.03
  H0024098             CONDUIT     0.000     0  12:14      0.23    0.00    0.05
  H0024235             CONDUIT     0.000     0  12:17      0.30    0.00    0.02
  H0024282             CONDUIT     0.000     0  00:00      0.00    0.00    0.00
  H0024308             CONDUIT     0.002     0  12:26      0.72    0.00    0.02
  H0024498             CONDUIT     0.000     0  12:14      0.24    0.00    0.05
  H0026990             CONDUIT     0.000     0  12:11      0.13    0.00    0.02
  H0041650             CONDUIT     0.000     0  12:19      0.14    0.00    0.02
  H0041011             CONDUIT     0.000     0  12:13      0.22    0.00    0.04
  H0045103             CONDUIT     0.000     0  12:19      0.15    0.00    0.02
  H0045104             CONDUIT     0.002     0  12:24      0.60    0.00    0.02
  H0045105             CONDUIT     0.000     0  12:10      0.07    0.00    0.02
  H0045106             CONDUIT     0.001     0  12:14      0.43    0.00    0.03
  H0045107             CONDUIT     0.000     0  12:10      0.14    0.00    0.04
  H0045108             CONDUIT     0.000     0  12:12      0.15    0.00    0.05
  
  
  ***************************
  Flow Classification Summary
  ***************************
  
  -------------------------------------------------------------------------------------
                      Adjusted    ---------- Fraction of Time in Flow Class ---------- 
                       /Actual         Up    Down  Sub   Sup   Up    Down  Norm  Inlet 
  Conduit               Length    Dry  Dry   Dry   Crit  Crit  Crit  Crit  Ltd   Ctrl  
  -------------------------------------------------------------------------------------
  H0014431                1.00   0.15  0.00  0.00  0.85  0.00  0.00  0.00  0.85  0.00
  H0014433                1.00   0.15  0.00  0.00  0.85  0.00  0.00  0.00  0.85  0.00
  H0014352                1.00   0.15  0.00  0.00  0.84  0.01  0.00  0.00  0.85  0.00
  H0014373                1.00   0.15  0.00  0.00  0.82  0.03  0.00  0.00  0.80  0.00
  H0017981                1.00   0.15  0.00  0.00  0.00  0.00  0.00  0.85  0.00  0.00
  H0017755                1.00   0.15  0.00  0.00  0.00  0.00  0.00  0.85  0.00  0.00
  H0017791                1.00   0.15  0.00  0.00  0.85  0.00  0.00  0.00  0.85  0.00
  H0017357                1.00   0.15  0.85  0.00  0.00  0.00  0.00  0.00  0.00  0.00
  H0018216                1.00   0.15  0.81  0.00  0.04  0.00  0.00  0.00  0.84  0.00
  H0016792                1.00   0.15  0.80  0.00  0.05  0.00  0.00  0.00  0.85  0.00
  H0019507                1.00   0.15  0.00  0.00  0.85  0.00  0.00  0.00  0.85  0.00
  H0019998                1.00   0.15  0.00  0.00  0.83  0.02  0.00  0.00  0.05  0.00
  H0019576                1.00   0.15  0.00  0.00  0.85  0.00  0.00  0.00  0.04  0.00
  H0020087                1.00   0.15  0.85  0.00  0.00  0.00  0.00  0.00  0.00  0.00
  H0020211                1.00   0.15  0.00  0.00  0.85  0.00  0.00  0.00  0.80  0.00
  H0018982                1.00   0.15  0.00  0.00  0.85  0.00  0.00  0.00  0.83  0.00
  H0018753                1.00   0.15  0.00  0.00  0.85  0.00  0.00  0.00  0.85  0.00
  H0018845                1.00   1.00  0.00  0.00  0.00  0.00  0.00  0.00  0.00  0.00
  H0018863                1.00   0.15  0.00  0.00  0.85  0.00  0.00  0.00  0.84  0.00
  H0019156                1.00   1.00  0.00  0.00  0.00  0.00  0.00  0.00  0.00  0.00
  H0018929                1.00   0.15  0.81  0.00  0.04  0.00  0.00  0.00  0.85  0.00
  H0018440                1.00   0.15  0.00  0.00  0.85  0.00  0.00  0.00  0.84  0.00
  H0018456                1.00   0.15  0.00  0.00  0.85  0.00  0.00  0.00  0.85  0.00
  H0018968                1.00   0.15  0.00  0.00  0.82  0.03  0.00  0.00  0.82  0.00
  H0022036                1.00   0.15  0.00  0.00  0.00  0.00  0.00  0.85  0.00  0.00
  H0021806                1.00   0.15  0.81  0.00  0.04  0.00  0.00  0.00  0.84  0.00
  H0022111                1.00   0.15  0.00  0.00  0.85  0.00  0.00  0.00  0.00  0.00
  H0021440                1.00   0.15  0.00  0.00  0.85  0.00  0.00  0.00  0.01  0.00
  H0021704                1.00   0.15  0.00  0.00  0.00  0.00  0.00  0.85  0.00  0.00
  H0020521                1.00   0.15  0.00  0.00  0.85  0.00  0.00  0.00  0.85  0.00
  H0020755                1.00   0.15  0.82  0.00  0.03  0.00  0.00  0.00  0.84  0.00
  H0020530                1.00   0.15  0.00  0.00  0.85  0.00  0.00  0.00  0.00  0.00
  H0020618                1.00   0.15  0.00  0.00  0.83  0.02  0.00  0.00  0.80  0.00
  H0021163                1.00   0.15  0.00  0.00  0.85  0.00  0.00  0.00  0.82  0.00
  H0020497                1.20   0.15  0.85  0.00  0.00  0.00  0.00  0.00  0.00  0.00
  H0024325                1.00   0.15  0.00  0.00  0.85  0.00  0.00  0.00  0.82  0.00
  H0023585                1.00   0.15  0.00  0.00  0.00  0.00  0.00  0.85  0.00  0.00
  H0024098                1.00   0.15  0.81  0.00  0.04  0.00  0.00  0.00  0.85  0.00
  H0024235                1.00   0.15  0.00  0.00  0.00  0.00  0.00  0.85  0.00  0.00
  H0024282                1.00   1.00  0.00  0.00  0.00  0.00  0.00  0.00  0.00  0.00
  H0024308                1.00   0.15  0.00  0.00  0.80  0.05  0.00  0.00  0.00  0.00
  H0024498                1.00   0.15  0.00  0.00  0.00  0.00  0.00  0.85  0.00  0.00
  H0026990                1.00   0.15  0.00  0.00  0.85  0.00  0.00  0.00  0.85  0.00
  H0041650                1.00   0.96  0.01  0.00  0.03  0.00  0.00  0.00  0.84  0.00
  H0041011                1.00   0.15  0.00  0.00  0.85  0.00  0.00  0.00  0.85  0.00
  H0045103                1.00   0.15  0.00  0.00  0.85  0.00  0.00  0.00  0.85  0.00
  H0045104                1.00   0.15  0.00  0.00  0.82  0.03  0.00  0.00  0.04  0.00
  H0045105                1.00   0.15  0.00  0.00  0.85  0.00  0.00  0.00  0.85  0.00
  H0045106                1.00   0.15  0.00  0.00  0.83  0.02  0.00  0.00  0.85  0.00
  H0045107                1.00   0.15  0.00  0.00  0.85  0.00  0.00  0.00  0.85  0.00
  H0045108                1.00   0.15  0.00  0.00  0.85  0.00  0.00  0.00  0.85  0.00
  
  
  *************************
  Conduit Surcharge Summary
  *************************
  
  No conduits were surcharged.
  

  Analysis begun on:  Sun Mar 24 09:49:56 2024
  Analysis ended on:  Sun Mar 24 09:50:05 2024
  Total elapsed time: 00:00:09