
  EPA STORM WATER MANAGEMENT MODEL - VERSION 5.2 (Build 5.2.4)
  PYSWMM TOOLKIT API - VERSION v1.0 (2023-11-27)
  ------------------------------------------------------------

  Gievenbeck_2014-06-09 00 35 00_hN11 84 
  
  ****************
  Analysis Options
  ****************
  Flow Units ............... CMS
  Process Models:
    Rainfall/Runoff ........ YES
    RDII ................... NO
    Snowmelt ............... NO
    Groundwater ............ NO
    Flow Routing ........... YES
    Ponding Allowed ........ NO
    Water Quality .......... NO
  Infiltration Method ...... HORTON
  Flow Routing Method ...... DYNWAVE
  Surcharge Method ......... SLOT
  Starting Date ............ 01/01/2024 00:00:00
  Ending Date .............. 01/04/2024 04:00:00
  Antecedent Dry Days ...... 14.0
  Report Time Step ......... 00:01:00
  Wet Time Step ............ 00:01:00
  Dry Time Step ............ 00:01:00
  Routing Time Step ........ 1.00 sec
  Variable Time Step ....... YES
  Maximum Trials ........... 8
  Number of Threads ........ 1
  Head Tolerance ........... 0.001500 m
  
  
  **************************        Volume         Depth
  Runoff Quantity Continuity     hectare-m            mm
  **************************     ---------       -------
  Total Precipitation ......         0.120        11.840
  Evaporation Loss .........         0.010         0.961
  Infiltration Loss ........         0.067         6.633
  Surface Runoff ...........         0.043         4.255
  Final Storage ............         0.000         0.000
  Continuity Error (%) .....        -0.076
  
  
  **************************        Volume        Volume
  Flow Routing Continuity        hectare-m      10^6 ltr
  **************************     ---------     ---------
  Dry Weather Inflow .......         0.000         0.000
  Wet Weather Inflow .......         0.043         0.431
  Groundwater Inflow .......         0.000         0.000
  RDII Inflow ..............         0.000         0.000
  External Inflow ..........         0.000         0.000
  External Outflow .........         0.043         0.431
  Flooding Loss ............         0.000         0.000
  Evaporation Loss .........         0.000         0.000
  Exfiltration Loss ........         0.000         0.000
  Initial Stored Volume ....         0.000         0.000
  Final Stored Volume ......         0.000         0.000
  Continuity Error (%) .....        -0.014
  
  
  ***************************
  Time-Step Critical Elements
  ***************************
  None
  
  
  ********************************
  Highest Flow Instability Indexes
  ********************************
  All links are stable.
  
  
  *********************************
  Most Frequent Nonconverging Nodes
  *********************************
  Convergence obtained at all time steps.
  
  
  *************************
  Routing Time Step Summary
  *************************
  Minimum Time Step           :     0.50 sec
  Average Time Step           :     1.00 sec
  Maximum Time Step           :     1.00 sec
  % of Time in Steady State   :     0.00
  Average Iterations per Step :     2.00
  % of Steps Not Converging   :     0.00
  Time Step Frequencies       :
      1.000 -  0.871 sec      :   100.00 %
      0.871 -  0.758 sec      :     0.00 %
      0.758 -  0.660 sec      :     0.00 %
      0.660 -  0.574 sec      :     0.00 %
      0.574 -  0.500 sec      :     0.00 %
  
  
  ***************************
  Subcatchment Runoff Summary
  ***************************
  
  ------------------------------------------------------------------------------------------------------------------------------
                            Total      Total      Total      Total     Imperv       Perv      Total       Total     Peak  Runoff
                           Precip      Runon       Evap      Infil     Runoff     Runoff     Runoff      Runoff   Runoff   Coeff
  Subcatchment                 mm         mm         mm         mm         mm         mm         mm    10^6 ltr      CMS
  ------------------------------------------------------------------------------------------------------------------------------
  EZG_368                   11.84       0.00       0.96       6.67       4.97       0.00       4.23        0.02     0.01   0.357
  EZG_392                   11.84       0.00       0.95       6.67       4.98       0.00       4.23        0.01     0.01   0.357
  EZG_352                   11.84       0.00       0.96       6.67       4.97       0.00       4.22        0.02     0.02   0.357
  EZG_372                   11.84       0.00       0.94       6.67       4.99       0.00       4.24        0.01     0.01   0.358
  EZG_416                   11.84       0.00       0.95       6.67       4.98       0.00       4.23        0.01     0.01   0.358
  EZG_388                   11.84       0.00       0.96       6.67       4.97       0.00       4.23        0.02     0.02   0.357
  EZG_394                   11.84       0.00       0.95       6.67       4.98       0.00       4.23        0.01     0.01   0.358
  EZG_400                   11.84       0.00       0.95       6.67       4.98       0.00       4.23        0.01     0.01   0.358
  EZG_390                   11.84       0.00       0.95       6.67       4.98       0.00       4.23        0.01     0.01   0.357
  EZG_350                   11.84       0.00       0.96       6.67       4.97       0.00       4.23        0.02     0.02   0.357
  EZG_370                   11.84       0.00       0.95       6.67       4.98       0.00       4.23        0.02     0.01   0.357
  EZG_398                   11.84       0.00       0.94       6.67       5.00       0.00       4.25        0.00     0.00   0.359
  EZG_382                   11.84       0.00       0.94       6.67       5.00       0.00       4.25        0.00     0.00   0.359
  EZG_374                   11.84       0.00       1.15       5.63       5.96       0.00       5.07        0.02     0.02   0.428
  EZG_412                   11.84       0.00       0.93       6.67       5.01       0.00       4.26        0.00     0.00   0.360
  EZG_344                   11.84       0.00       0.95       6.67       4.98       0.00       4.23        0.01     0.01   0.358
  EZG_376                   11.84       0.00       0.95       6.67       4.99       0.00       4.24        0.01     0.01   0.358
  EZG_356                   11.84       0.00       0.96       6.66       4.97       0.00       4.22        0.03     0.02   0.356
  EZG_386                   11.84       0.00       0.97       6.66       4.96       0.00       4.22        0.03     0.02   0.356
  EZG_380                   11.84       0.00       0.95       6.67       4.97       0.00       4.23        0.02     0.01   0.357
  EZG_378                   11.84       0.00       0.95       6.67       4.98       0.00       4.23        0.01     0.01   0.357
  EZG_414                   11.84       0.00       0.94       6.67       5.00       0.00       4.25        0.00     0.00   0.359
  EZG_402                   11.84       0.00       0.95       6.67       4.98       0.00       4.23        0.01     0.01   0.357
  EZG_358                   11.84       0.00       0.96       6.66       4.97       0.00       4.22        0.03     0.02   0.356
  EZG_364                   11.84       0.00       0.96       6.66       4.97       0.00       4.22        0.03     0.02   0.356
  EZG_410                   11.84       0.00       0.95       6.67       4.99       0.00       4.24        0.01     0.01   0.358
  EZG_366                   11.84       0.00       0.95       6.67       4.98       0.00       4.24        0.01     0.01   0.358
  EZG_18259                 11.84       0.00       0.95       6.67       4.98       0.00       4.24        0.01     0.01   0.358
  EZG_18258                 11.84       0.00       0.93       6.67       5.00       0.00       4.25        0.00     0.00   0.359
  EZG_346                   11.84       0.00       0.93       6.77       4.88       0.00       4.15        0.02     0.01   0.350
  EZG_348                   11.84       0.00       0.93       6.77       4.89       0.00       4.15        0.01     0.01   0.351
  
  
  ******************
  Node Depth Summary
  ******************
  
  ---------------------------------------------------------------------------------
                                 Average  Maximum  Maximum  Time of Max    Reported
                                   Depth    Depth      HGL   Occurrence   Max Depth
  Node                 Type       Meters   Meters   Meters  days hr:min      Meters
  ---------------------------------------------------------------------------------
  R0019466             JUNCTION     0.00     0.14    69.59     0  03:00        0.14
  R0019468             JUNCTION     0.00     0.15    69.46     0  03:00        0.15
  R0019831             JUNCTION     0.00     0.08    69.25     0  03:00        0.08
  R0019825             JUNCTION     0.00     0.13    68.97     0  03:00        0.12
  R0019843             JUNCTION     0.00     0.20    67.83     0  03:02        0.19
  R0019368             JUNCTION     0.00     0.28    67.07     0  03:02        0.28
  R0019369             JUNCTION     0.00     0.21    66.80     0  03:02        0.21
  R0019370             JUNCTION     0.00     0.18    66.08     0  03:03        0.18
  R0019345             JUNCTION     0.00     0.14    70.04     0  03:00        0.14
  R0019346             JUNCTION     0.00     0.12    69.92     0  03:01        0.12
  R0043600             JUNCTION     0.00     0.14    69.81     0  03:01        0.14
  R0019203             JUNCTION     0.00     0.16    69.70     0  03:01        0.16
  R0043594             JUNCTION     0.00     0.12    69.85     0  03:00        0.12
  R0021458             JUNCTION     0.00     0.15    69.80     0  03:00        0.15
  R0019202             JUNCTION     0.00     0.14    69.72     0  03:01        0.14
  R0019373             JUNCTION     0.00     0.08    69.75     0  03:00        0.08
  R0019254             JUNCTION     0.00     0.13    70.17     0  03:00        0.12
  R0019716             JUNCTION     0.00     0.17    69.18     0  03:02        0.17
  R0019946             JUNCTION     0.00     0.27    68.89     0  03:02        0.27
  R0013935             JUNCTION     0.00     0.07    68.90     0  03:00        0.07
  R0019939             JUNCTION     0.00     0.11    68.68     0  03:00        0.11
  R0019944             JUNCTION     0.00     0.16    68.44     0  03:02        0.16
  R0043703             JUNCTION     0.00     0.19    68.79     0  03:02        0.19
  R0019945             JUNCTION     0.00     0.20    68.60     0  03:02        0.20
  R0039621             JUNCTION     0.00     0.02    69.59     0  03:00        0.02
  R0019838             JUNCTION     0.00     0.12    69.58     0  03:00        0.12
  R0039606             JUNCTION     0.00     0.14    69.73     0  03:01        0.13
  R0019204             JUNCTION     0.00     0.00    69.91     0  00:00        0.00
  R0019205             JUNCTION     0.00     0.00    69.62     0  00:00        0.00
  R0019849             JUNCTION     0.00     0.13    68.65     0  03:00        0.13
  R0019371             JUNCTION     0.00     0.00    70.41     0  00:00        0.00
  R0019718             JUNCTION     0.00     0.22    69.64     0  03:02        0.22
  R0021442             JUNCTION     0.00     0.16    70.21     0  03:00        0.16
  R0019247             JUNCTION     0.00     0.16    70.04     0  03:00        0.16
  R0019719             JUNCTION     0.00     0.13    69.81     0  03:01        0.13
  R0019767             JUNCTION     0.00     0.19    64.92     0  03:03        0.19
  R0019768             JUNCTION     0.00     0.16    63.93     0  03:03        0.16
  R0021453             JUNCTION     0.00     0.05    70.00     0  03:00        0.05
  R0019839             JUNCTION     0.00     0.11    69.50     0  03:00        0.11
  R0019717             JUNCTION     0.00     0.18    69.52     0  03:02        0.18
  R0019252             JUNCTION     0.00     0.10    70.29     0  03:00        0.10
  R0019721             JUNCTION     0.00     0.10    69.97     0  03:00        0.10
  R0019942             JUNCTION     0.00     0.09    68.74     0  03:00        0.09
  R0019206             JUNCTION     0.00     0.00    69.07     0  00:00        0.00
  R0019840             JUNCTION     0.00     0.10    69.07     0  03:00        0.10
  R0043702             JUNCTION     0.00     0.15    68.85     0  03:00        0.15
  R0019723             JUNCTION     0.00     0.08    70.16     0  03:00        0.08
  R0019724             JUNCTION     0.00     0.04    70.20     0  03:00        0.04
  R0021433             JUNCTION     0.00     0.09    70.48     0  03:00        0.09
  R0021435             JUNCTION     0.00     0.12    70.30     0  03:00        0.12
  R0019769             OUTFALL      0.00     0.16    63.54     0  03:03        0.16
  
  
  *******************
  Node Inflow Summary
  *******************
  
  -------------------------------------------------------------------------------------------------
                                  Maximum  Maximum                  Lateral       Total        Flow
                                  Lateral    Total  Time of Max      Inflow      Inflow     Balance
                                   Inflow   Inflow   Occurrence      Volume      Volume       Error
  Node                 Type           CMS      CMS  days hr:min    10^6 ltr    10^6 ltr     Percent
  -------------------------------------------------------------------------------------------------
  R0019466             JUNCTION     0.014    0.026     0  03:00      0.0175      0.0326      -0.044
  R0019468             JUNCTION     0.009    0.033     0  03:00      0.0101      0.0428       0.043
  R0019831             JUNCTION     0.011    0.011     0  03:00      0.0137      0.0137      -0.133
  R0019825             JUNCTION     0.011    0.023     0  03:00      0.0137      0.0275      -0.008
  R0019843             JUNCTION     0.000    0.252     0  03:01           0       0.431      -0.017
  R0019368             JUNCTION     0.000    0.251     0  03:02           0       0.431       0.007
  R0019369             JUNCTION     0.000    0.249     0  03:02           0       0.431      -0.004
  R0019370             JUNCTION     0.000    0.250     0  03:02           0       0.431       0.011
  R0019345             JUNCTION     0.000    0.020     0  03:00           0      0.0269       0.130
  R0019346             JUNCTION     0.002    0.033     0  03:00      0.0017      0.0449       0.054
  R0043600             JUNCTION     0.000    0.037     0  03:01           0      0.0521       0.161
  R0019203             JUNCTION     0.003    0.077     0  03:01     0.00376       0.117      -0.028
  R0043594             JUNCTION     0.019    0.028     0  03:00      0.0249      0.0356      -0.319
  R0021458             JUNCTION     0.016    0.040     0  03:00      0.0194      0.0552      -0.036
  R0019202             JUNCTION     0.005    0.040     0  03:01     0.00574      0.0608      -0.023
  R0019373             JUNCTION     0.013    0.013     0  03:00      0.0152      0.0152      -0.066
  R0019254             JUNCTION     0.010    0.022     0  03:00      0.0123      0.0269      -0.053
  R0019716             JUNCTION     0.015    0.141     0  03:02      0.0193        0.24      -0.038
  R0019946             JUNCTION     0.000    0.141     0  03:02           0        0.24       0.034
  R0013935             JUNCTION     0.010    0.010     0  03:00      0.0117      0.0117      -0.154
  R0019939             JUNCTION     0.004    0.014     0  03:00     0.00421       0.016      -0.008
  R0019944             JUNCTION     0.009    0.176     0  03:02      0.0109       0.307      -0.001
  R0043703             JUNCTION     0.011    0.147     0  03:02      0.0134       0.253       0.012
  R0019945             JUNCTION     0.000    0.172     0  03:02           0       0.297       0.000
  R0039621             JUNCTION     0.000    0.001     0  02:59           0    6.54e-05       7.625
  R0019838             JUNCTION     0.021    0.021     0  03:00       0.027      0.0271      -0.023
  R0039606             JUNCTION     0.000    0.038     0  03:01           0      0.0552       0.167
  R0019204             JUNCTION     0.000    0.000     0  00:00           0           0       0.000 ltr
  R0019205             JUNCTION     0.000    0.000     0  00:00           0           0       0.000 ltr
  R0019849             JUNCTION     0.000    0.034     0  03:00           0      0.0434       0.009
  R0019371             JUNCTION     0.000    0.000     0  00:00           0           0       0.000 ltr
  R0019718             JUNCTION     0.013    0.085     0  03:01      0.0165       0.133       0.016
  R0021442             JUNCTION     0.015    0.033     0  03:00      0.0192      0.0435      -0.034
  R0019247             JUNCTION     0.007    0.038     0  03:00     0.00845       0.052      -0.121
  R0019719             JUNCTION     0.008    0.039     0  03:00      0.0089      0.0538      -0.023
  R0019767             JUNCTION     0.000    0.249     0  03:03           0       0.431      -0.006
  R0019768             JUNCTION     0.000    0.249     0  03:03           0       0.431       0.014
  R0021453             JUNCTION     0.009    0.009     0  03:00      0.0107      0.0107       0.078
  R0019839             JUNCTION     0.020    0.038     0  03:00      0.0267      0.0538      -0.043
  R0019717             JUNCTION     0.025    0.133     0  03:02      0.0337       0.221       0.006
  R0019252             JUNCTION     0.012    0.012     0  03:00      0.0145      0.0145      -0.150
  R0019721             JUNCTION     0.003    0.014     0  03:00      0.0037      0.0164       0.054
  R0019942             JUNCTION     0.000    0.022     0  03:00           0      0.0275       0.076
  R0019206             JUNCTION     0.000    0.000     0  00:00           0           0       0.000 ltr
  R0019840             JUNCTION     0.000    0.068     0  03:00           0      0.0966       0.026
  R0043702             JUNCTION     0.020    0.085     0  03:00      0.0267       0.123      -0.008
  R0019723             JUNCTION     0.009    0.011     0  03:00      0.0101      0.0127      -0.195
  R0019724             JUNCTION     0.002    0.002     0  03:00      0.0026      0.0026      -0.254
  R0021433             JUNCTION     0.012    0.012     0  03:00      0.0151      0.0151      -0.144
  R0021435             JUNCTION     0.008    0.020     0  03:00     0.00924      0.0243       0.058
  R0019769             OUTFALL      0.000    0.249     0  03:03           0       0.431       0.000
  
  
  **********************
  Node Surcharge Summary
  **********************
  
  No nodes were surcharged.
  
  
  *********************
  Node Flooding Summary
  *********************
  
  No nodes were flooded.
  
  
  ***********************
  Outfall Loading Summary
  ***********************
  
  -----------------------------------------------------------
                         Flow       Avg       Max       Total
                         Freq      Flow      Flow      Volume
  Outfall Node           Pcnt       CMS       CMS    10^6 ltr
  -----------------------------------------------------------
  R0019769               4.87     0.032     0.249       0.431
  -----------------------------------------------------------
  System                 4.87     0.032     0.249       0.431
  
  
  ********************
  Link Flow Summary
  ********************
  
  -----------------------------------------------------------------------------
                                 Maximum  Time of Max   Maximum    Max/    Max/
                                  |Flow|   Occurrence   |Veloc|    Full    Full
  Link                 Type          CMS  days hr:min     m/sec    Flow   Depth
  -----------------------------------------------------------------------------
  H0014431             CONDUIT     0.025     0  03:00      0.74    0.46    0.48
  H0014433             CONDUIT     0.011     0  03:00      0.53    0.14    0.34
  H0014352             CONDUIT     0.251     0  03:02      1.88    0.10    0.26
  H0014373             CONDUIT     0.250     0  03:02      2.46    0.12    0.22
  H0017981             CONDUIT     0.020     0  03:01      0.73    0.56    0.41
  H0017755             CONDUIT     0.036     0  03:01      0.93    0.29    0.35
  H0017791             CONDUIT     0.026     0  03:00      0.43    0.04    0.15
  H0017357             CONDUIT     0.000     0  00:00      0.00    0.00    0.14
  H0018216             CONDUIT     0.020     0  03:00      0.68    0.37    0.44
  H0016792             CONDUIT     0.141     0  03:02      1.14    0.08    0.25
  H0019507             CONDUIT     0.010     0  03:00      0.52    0.13    0.31
  H0019998             CONDUIT     0.176     0  03:02      1.99    0.07    0.20
  H0019576             CONDUIT     0.147     0  03:02      1.45    0.10    0.22
  H0020087             CONDUIT     0.001     0  02:59      0.05    0.00    0.14
  H0020211             CONDUIT     0.142     0  03:02      1.09    0.35    0.26
  H0018982             CONDUIT     0.038     0  03:01      0.58    0.06    0.16
  H0018753             CONDUIT     0.012     0  03:00      0.49    0.17    0.38
  H0018845             CONDUIT     0.000     0  00:00      0.00    0.00    0.00
  H0018863             CONDUIT     0.013     0  03:00      0.47    0.30    0.41
  H0019156             CONDUIT     0.000     0  00:00      0.00    0.00    0.00
  H0018929             CONDUIT     0.077     0  03:01      0.80    0.07    0.21
  H0018440             CONDUIT     0.032     0  03:00      0.82    0.57    0.54
  H0018456             CONDUIT     0.033     0  03:01      0.96    0.20    0.32
  H0018968             CONDUIT     0.249     0  03:03      2.79    0.10    0.20
  H0022036             CONDUIT     0.009     0  03:00      0.44    0.01    0.08
  H0021806             CONDUIT     0.037     0  03:01      0.85    0.33    0.38
  H0022111             CONDUIT     0.018     0  03:00      0.51    0.13    0.24
  H0021440             CONDUIT     0.133     0  03:02      1.52    0.09    0.20
  H0021704             CONDUIT     0.082     0  03:02      0.83    0.16    0.21
  H0020521             CONDUIT     0.011     0  03:00      0.48    0.23    0.37
  H0020755             CONDUIT     0.013     0  03:00      0.45    0.14    0.28
  H0020530             CONDUIT     0.249     0  03:02      1.77    0.21    0.27
  H0020618             CONDUIT     0.172     0  03:02      1.90    0.11    0.20
  H0021163             CONDUIT     0.022     0  03:00      0.92    0.36    0.37
  H0020497             CONDUIT     0.000     0  00:00      0.00    0.00    0.33
  H0024325             CONDUIT     0.037     0  03:00      1.20    0.11    0.22
  H0023585             CONDUIT     0.085     0  03:00      1.72    0.19    0.30
  H0024098             CONDUIT     0.034     0  03:00      0.91    0.39    0.54
  H0024235             CONDUIT     0.038     0  03:01      0.93    0.16    0.26
  H0024282             CONDUIT     0.000     0  00:00      0.00    0.00    0.00
  H0024308             CONDUIT     0.249     0  03:03      3.13    0.07    0.18
  H0024498             CONDUIT     0.031     0  03:00      0.95    0.48    0.47
  H0026990             CONDUIT     0.011     0  03:00      0.51    0.08    0.22
  H0041650             CONDUIT     0.039     0  03:01      0.59    0.05    0.16
  H0041011             CONDUIT     0.021     0  03:00      0.88    0.21    0.38
  H0045103             CONDUIT     0.037     0  03:01      0.61    0.05    0.15
  H0045104             CONDUIT     0.249     0  03:03      2.62    0.09    0.21
  H0045105             CONDUIT     0.002     0  03:00      0.25    0.04    0.20
  H0045106             CONDUIT     0.068     0  03:00      1.75    0.09    0.25
  H0045107             CONDUIT     0.012     0  03:00      0.55    0.20    0.35
  H0045108             CONDUIT     0.019     0  03:00      0.57    0.34    0.47
  
  
  ***************************
  Flow Classification Summary
  ***************************
  
  -------------------------------------------------------------------------------------
                      Adjusted    ---------- Fraction of Time in Flow Class ---------- 
                       /Actual         Up    Down  Sub   Sup   Up    Down  Norm  Inlet 
  Conduit               Length    Dry  Dry   Dry   Crit  Crit  Crit  Crit  Ltd   Ctrl  
  -------------------------------------------------------------------------------------
  H0014431                1.00   0.03  0.00  0.00  0.97  0.00  0.00  0.00  0.96  0.00
  H0014433                1.00   0.03  0.00  0.00  0.97  0.00  0.00  0.00  0.97  0.00
  H0014352                1.00   0.03  0.00  0.00  0.94  0.03  0.00  0.00  0.97  0.00
  H0014373                1.00   0.03  0.00  0.00  0.92  0.04  0.00  0.00  0.91  0.00
  H0017981                1.00   0.03  0.00  0.00  0.00  0.00  0.00  0.97  0.00  0.00
  H0017755                1.00   0.03  0.00  0.00  0.00  0.00  0.00  0.97  0.00  0.00
  H0017791                1.00   0.03  0.00  0.00  0.97  0.00  0.00  0.00  0.97  0.00
  H0017357                1.00   0.03  0.97  0.00  0.00  0.00  0.00  0.00  0.00  0.00
  H0018216                1.00   0.03  0.92  0.00  0.05  0.00  0.00  0.00  0.96  0.00
  H0016792                1.00   0.03  0.91  0.00  0.06  0.00  0.00  0.00  0.97  0.00
  H0019507                1.00   0.03  0.00  0.00  0.97  0.00  0.00  0.00  0.97  0.00
  H0019998                1.00   0.03  0.00  0.00  0.93  0.04  0.00  0.00  0.06  0.00
  H0019576                1.00   0.03  0.00  0.00  0.95  0.02  0.00  0.00  0.05  0.00
  H0020087                1.00   0.03  0.96  0.00  0.01  0.00  0.00  0.00  0.96  0.00
  H0020211                1.00   0.03  0.00  0.00  0.97  0.00  0.00  0.00  0.91  0.00
  H0018982                1.00   0.03  0.00  0.00  0.97  0.00  0.00  0.00  0.93  0.00
  H0018753                1.00   0.03  0.00  0.00  0.97  0.00  0.00  0.00  0.97  0.00
  H0018845                1.00   1.00  0.00  0.00  0.00  0.00  0.00  0.00  0.00  0.00
  H0018863                1.00   0.03  0.00  0.00  0.97  0.00  0.00  0.00  0.96  0.00
  H0019156                1.00   1.00  0.00  0.00  0.00  0.00  0.00  0.00  0.00  0.00
  H0018929                1.00   0.03  0.92  0.00  0.05  0.00  0.00  0.00  0.97  0.00
  H0018440                1.00   0.03  0.00  0.00  0.97  0.00  0.00  0.00  0.96  0.00
  H0018456                1.00   0.03  0.00  0.00  0.97  0.00  0.00  0.00  0.96  0.00
  H0018968                1.00   0.03  0.00  0.00  0.92  0.05  0.00  0.00  0.93  0.00
  H0022036                1.00   0.03  0.00  0.00  0.01  0.00  0.00  0.95  0.01  0.00
  H0021806                1.00   0.03  0.92  0.00  0.05  0.00  0.00  0.00  0.96  0.00
  H0022111                1.00   0.03  0.00  0.00  0.97  0.00  0.00  0.00  0.00  0.00
  H0021440                1.00   0.03  0.00  0.00  0.94  0.03  0.00  0.00  0.02  0.00
  H0021704                1.00   0.03  0.00  0.00  0.00  0.00  0.00  0.97  0.00  0.00
  H0020521                1.00   0.03  0.00  0.00  0.97  0.00  0.00  0.00  0.97  0.00
  H0020755                1.00   0.03  0.92  0.00  0.04  0.00  0.00  0.00  0.97  0.00
  H0020530                1.00   0.03  0.00  0.00  0.94  0.02  0.00  0.00  0.01  0.00
  H0020618                1.00   0.03  0.00  0.00  0.93  0.03  0.00  0.00  0.92  0.00
  H0021163                1.00   0.03  0.00  0.00  0.96  0.01  0.00  0.00  0.93  0.00
  H0020497                1.20   0.03  0.97  0.00  0.00  0.00  0.00  0.00  0.00  0.00
  H0024325                1.00   0.03  0.00  0.00  0.94  0.03  0.00  0.00  0.93  0.00
  H0023585                1.00   0.03  0.00  0.00  0.00  0.00  0.00  0.97  0.00  0.00
  H0024098                1.00   0.03  0.92  0.00  0.05  0.00  0.00  0.00  0.97  0.00
  H0024235                1.00   0.03  0.00  0.00  0.00  0.00  0.00  0.97  0.00  0.00
  H0024282                1.00   1.00  0.00  0.00  0.00  0.00  0.00  0.00  0.00  0.00
  H0024308                1.00   0.03  0.00  0.00  0.91  0.06  0.00  0.00  0.01  0.00
  H0024498                1.00   0.03  0.00  0.00  0.00  0.00  0.00  0.97  0.00  0.00
  H0026990                1.00   0.03  0.00  0.00  0.97  0.00  0.00  0.00  0.97  0.00
  H0041650                1.00   0.95  0.01  0.00  0.04  0.00  0.00  0.00  0.96  0.00
  H0041011                1.00   0.03  0.00  0.00  0.97  0.00  0.00  0.00  0.96  0.00
  H0045103                1.00   0.03  0.00  0.00  0.97  0.00  0.00  0.00  0.94  0.00
  H0045104                1.00   0.03  0.00  0.00  0.92  0.05  0.00  0.00  0.05  0.00
  H0045105                1.00   0.03  0.00  0.00  0.97  0.00  0.00  0.00  0.97  0.00
  H0045106                1.00   0.03  0.00  0.00  0.94  0.03  0.00  0.00  0.97  0.00
  H0045107                1.00   0.03  0.00  0.00  0.97  0.00  0.00  0.00  0.97  0.00
  H0045108                1.00   0.03  0.00  0.00  0.97  0.00  0.00  0.00  0.97  0.00
  
  
  *************************
  Conduit Surcharge Summary
  *************************
  
  No conduits were surcharged.
  

  Analysis begun on:  Sat Mar 23 12:39:39 2024
  Analysis ended on:  Sat Mar 23 12:39:44 2024
  Total elapsed time: 00:00:05