
  EPA STORM WATER MANAGEMENT MODEL - VERSION 5.2 (Build 5.2.4)
  PYSWMM TOOLKIT API - VERSION v1.0 (2023-11-27)
  ------------------------------------------------------------

  
  ****************
  Analysis Options
  ****************
  Flow Units ............... CMS
  Process Models:
    Rainfall/Runoff ........ YES
    RDII ................... NO
    Snowmelt ............... NO
    Groundwater ............ NO
    Flow Routing ........... YES
    Ponding Allowed ........ NO
    Water Quality .......... NO
  Infiltration Method ...... HORTON
  Flow Routing Method ...... DYNWAVE
  Surcharge Method ......... SLOT
  Starting Date ............ 05/01/2018 00:00:00
  Ending Date .............. 05/01/2018 06:00:00
  Antecedent Dry Days ...... 14.0
  Report Time Step ......... 00:01:00
  Wet Time Step ............ 00:01:00
  Dry Time Step ............ 00:01:00
  Routing Time Step ........ 1.00 sec
  Variable Time Step ....... YES
  Maximum Trials ........... 8
  Number of Threads ........ 4
  Head Tolerance ........... 0.001500 m
  
  
  **************************        Volume         Depth
  Runoff Quantity Continuity     hectare-m            mm
  **************************     ---------       -------
  Total Precipitation ......         0.203        20.010
  Evaporation Loss .........         0.002         0.155
  Infiltration Loss ........         0.114        11.304
  Surface Runoff ...........         0.079         7.765
  Final Storage ............         0.008         0.800
  Continuity Error (%) .....        -0.073
  
  
  **************************        Volume        Volume
  Flow Routing Continuity        hectare-m      10^6 ltr
  **************************     ---------     ---------
  Dry Weather Inflow .......         0.000         0.000
  Wet Weather Inflow .......         0.079         0.786
  Groundwater Inflow .......         0.000         0.000
  RDII Inflow ..............         0.000         0.000
  External Inflow ..........         0.000         0.000
  External Outflow .........         0.079         0.787
  Flooding Loss ............         0.000         0.000
  Evaporation Loss .........         0.000         0.000
  Exfiltration Loss ........         0.000         0.000
  Initial Stored Volume ....         0.000         0.000
  Final Stored Volume ......         0.000         0.000
  Continuity Error (%) .....        -0.092
  
  
  ***************************
  Time-Step Critical Elements
  ***************************
  None
  
  
  ********************************
  Highest Flow Instability Indexes
  ********************************
  Link H0020530 (1)
  
  
  *********************************
  Most Frequent Nonconverging Nodes
  *********************************
  Convergence obtained at all time steps.
  
  
  *************************
  Routing Time Step Summary
  *************************
  Minimum Time Step           :     0.06 sec
  Average Time Step           :     1.00 sec
  Maximum Time Step           :     1.00 sec
  % of Time in Steady State   :     0.00
  Average Iterations per Step :     2.00
  % of Steps Not Converging   :     0.00
  Time Step Frequencies       :
      1.000 -  0.871 sec      :   100.00 %
      0.871 -  0.758 sec      :     0.00 %
      0.758 -  0.660 sec      :     0.00 %
      0.660 -  0.574 sec      :     0.00 %
      0.574 -  0.500 sec      :     0.00 %
  
  
  ***************************
  Subcatchment Runoff Summary
  ***************************
  
  ------------------------------------------------------------------------------------------------------------------------------
                            Total      Total      Total      Total     Imperv       Perv      Total       Total     Peak  Runoff
                           Precip      Runon       Evap      Infil     Runoff     Runoff     Runoff      Runoff   Runoff   Coeff
  Subcatchment                 mm         mm         mm         mm         mm         mm         mm    10^6 ltr      CMS
  ------------------------------------------------------------------------------------------------------------------------------
  EZG_368                   20.01       0.00       0.15      11.36       9.07       0.01       7.71        0.03     0.04   0.386
  EZG_392                   20.01       0.00       0.15      11.36       9.07       0.01       7.72        0.02     0.03   0.386
  EZG_352                   20.01       0.00       0.15      11.36       9.06       0.00       7.71        0.05     0.05   0.385
  EZG_372                   20.01       0.00       0.15      11.36       9.09       0.01       7.74        0.01     0.01   0.387
  EZG_416                   20.01       0.00       0.15      11.36       9.08       0.01       7.72        0.02     0.03   0.386
  EZG_388                   20.01       0.00       0.15      11.36       9.07       0.01       7.71        0.04     0.04   0.385
  EZG_394                   20.01       0.00       0.15      11.36       9.08       0.01       7.72        0.02     0.03   0.386
  EZG_400                   20.01       0.00       0.15      11.36       9.08       0.01       7.72        0.02     0.02   0.386
  EZG_390                   20.01       0.00       0.15      11.36       9.07       0.01       7.72        0.02     0.03   0.386
  EZG_350                   20.01       0.00       0.15      11.36       9.07       0.01       7.71        0.04     0.04   0.385
  EZG_370                   20.01       0.00       0.15      11.36       9.07       0.01       7.72        0.03     0.03   0.386
  EZG_398                   20.01       0.00       0.15      11.35       9.09       0.02       7.75        0.01     0.01   0.387
  EZG_382                   20.01       0.00       0.15      11.35       9.09       0.02       7.75        0.01     0.01   0.387
  EZG_374                   20.01       0.00       0.18       9.61      10.88       0.02       9.27        0.04     0.04   0.463
  EZG_412                   20.01       0.00       0.15      11.35       9.10       0.03       7.77        0.00     0.00   0.388
  EZG_344                   20.01       0.00       0.15      11.36       9.08       0.01       7.72        0.02     0.02   0.386
  EZG_376                   20.01       0.00       0.15      11.36       9.08       0.01       7.73        0.02     0.02   0.386
  EZG_356                   20.01       0.00       0.15      11.36       9.06       0.00       7.71        0.05     0.06   0.385
  EZG_386                   20.01       0.00       0.15      11.36       9.06       0.00       7.70        0.06     0.07   0.385
  EZG_380                   20.01       0.00       0.15      11.36       9.07       0.01       7.72        0.03     0.04   0.386
  EZG_378                   20.01       0.00       0.15      11.36       9.07       0.01       7.72        0.03     0.03   0.386
  EZG_414                   20.01       0.00       0.15      11.35       9.09       0.02       7.75        0.01     0.01   0.387
  EZG_402                   20.01       0.00       0.15      11.36       9.07       0.01       7.72        0.03     0.03   0.386
  EZG_358                   20.01       0.00       0.15      11.36       9.06       0.00       7.71        0.05     0.06   0.385
  EZG_364                   20.01       0.00       0.15      11.36       9.06       0.00       7.71        0.05     0.06   0.385
  EZG_410                   20.01       0.00       0.15      11.36       9.08       0.01       7.73        0.02     0.02   0.386
  EZG_366                   20.01       0.00       0.15      11.36       9.08       0.01       7.73        0.02     0.02   0.386
  EZG_18259                 20.01       0.00       0.15      11.36       9.08       0.01       7.73        0.02     0.02   0.386
  EZG_18258                 20.01       0.00       0.15      11.35       9.10       0.02       7.76        0.00     0.01   0.388
  EZG_346                   20.01       0.00       0.15      11.53       8.89       0.01       7.56        0.03     0.03   0.378
  EZG_348                   20.01       0.00       0.15      11.53       8.90       0.01       7.57        0.02     0.02   0.378
  
  
  ******************
  Node Depth Summary
  ******************
  
  ---------------------------------------------------------------------------------
                                 Average  Maximum  Maximum  Time of Max    Reported
                                   Depth    Depth      HGL   Occurrence   Max Depth
  Node                 Type       Meters   Meters   Meters  days hr:min      Meters
  ---------------------------------------------------------------------------------
  R0019466             JUNCTION     0.02     0.37    69.82     0  00:24        0.36
  R0019468             JUNCTION     0.02     0.34    69.65     0  00:25        0.34
  R0019831             JUNCTION     0.01     0.13    69.30     0  00:25        0.13
  R0019825             JUNCTION     0.02     0.23    69.07     0  00:25        0.23
  R0019843             JUNCTION     0.03     0.35    67.98     0  00:26        0.35
  R0019368             JUNCTION     0.05     0.53    67.32     0  00:26        0.53
  R0019369             JUNCTION     0.04     0.38    66.97     0  00:26        0.38
  R0019370             JUNCTION     0.03     0.33    66.23     0  00:26        0.33
  R0019345             JUNCTION     0.02     0.24    70.14     0  00:25        0.24
  R0019346             JUNCTION     0.02     0.22    70.02     0  00:25        0.22
  R0043600             JUNCTION     0.02     0.25    69.92     0  00:25        0.25
  R0019203             JUNCTION     0.03     0.28    69.82     0  00:25        0.28
  R0043594             JUNCTION     0.02     0.21    69.94     0  00:25        0.20
  R0021458             JUNCTION     0.02     0.25    69.90     0  00:25        0.25
  R0019202             JUNCTION     0.02     0.25    69.83     0  00:25        0.25
  R0019373             JUNCTION     0.01     0.17    69.84     0  00:25        0.16
  R0019254             JUNCTION     0.02     0.25    70.29     0  00:25        0.24
  R0019716             JUNCTION     0.03     0.32    69.33     0  00:25        0.32
  R0019946             JUNCTION     0.05     0.46    69.08     0  00:25        0.46
  R0013935             JUNCTION     0.01     0.12    68.95     0  00:25        0.12
  R0019939             JUNCTION     0.02     0.31    68.88     0  00:25        0.30
  R0019944             JUNCTION     0.03     0.29    68.57     0  00:26        0.29
  R0043703             JUNCTION     0.03     0.35    68.95     0  00:26        0.35
  R0019945             JUNCTION     0.04     0.36    68.76     0  00:26        0.36
  R0039621             JUNCTION     0.00     0.11    69.68     0  00:25        0.10
  R0019838             JUNCTION     0.02     0.21    69.67     0  00:25        0.21
  R0039606             JUNCTION     0.02     0.25    69.84     0  00:25        0.25
  R0019204             JUNCTION     0.00     0.00    69.91     0  00:00        0.00
  R0019205             JUNCTION     0.00     0.00    69.62     0  00:00        0.00
  R0019849             JUNCTION     0.02     0.34    68.86     0  00:25        0.34
  R0019371             JUNCTION     0.00     0.00    70.41     0  00:00        0.00
  R0019718             JUNCTION     0.04     0.36    69.78     0  00:25        0.36
  R0021442             JUNCTION     0.03     0.47    70.52     0  00:25        0.46
  R0019247             JUNCTION     0.02     0.29    70.17     0  00:25        0.29
  R0019719             JUNCTION     0.02     0.23    69.91     0  00:25        0.23
  R0019767             JUNCTION     0.03     0.35    65.08     0  00:26        0.35
  R0019768             JUNCTION     0.03     0.30    64.07     0  00:26        0.30
  R0021453             JUNCTION     0.01     0.08    70.03     0  00:25        0.08
  R0019839             JUNCTION     0.02     0.20    69.59     0  00:25        0.20
  R0019717             JUNCTION     0.03     0.32    69.66     0  00:25        0.32
  R0019252             JUNCTION     0.01     0.17    70.36     0  00:25        0.17
  R0019721             JUNCTION     0.01     0.18    70.05     0  00:25        0.18
  R0019942             JUNCTION     0.01     0.23    68.88     0  00:25        0.23
  R0019206             JUNCTION     0.00     0.00    69.07     0  00:00        0.00
  R0019840             JUNCTION     0.02     0.18    69.15     0  00:25        0.18
  R0043702             JUNCTION     0.02     0.27    68.97     0  00:25        0.26
  R0019723             JUNCTION     0.01     0.12    70.20     0  00:25        0.12
  R0019724             JUNCTION     0.01     0.06    70.22     0  00:25        0.06
  R0021433             JUNCTION     0.01     0.27    70.66     0  00:25        0.23
  R0021435             JUNCTION     0.02     0.43    70.61     0  00:25        0.40
  R0019769             OUTFALL      0.03     0.30    63.68     0  00:26        0.30
  
  
  *******************
  Node Inflow Summary
  *******************
  
  -------------------------------------------------------------------------------------------------
                                  Maximum  Maximum                  Lateral       Total        Flow
                                  Lateral    Total  Time of Max      Inflow      Inflow     Balance
                                   Inflow   Inflow   Occurrence      Volume      Volume       Error
  Node                 Type           CMS      CMS  days hr:min    10^6 ltr    10^6 ltr     Percent
  -------------------------------------------------------------------------------------------------
  R0019466             JUNCTION     0.037    0.067     0  00:24      0.0319      0.0595       0.029
  R0019468             JUNCTION     0.022    0.085     0  00:24      0.0185       0.078      -0.007
  R0019831             JUNCTION     0.030    0.030     0  00:25       0.025       0.025      -0.063
  R0019825             JUNCTION     0.030    0.059     0  00:25      0.0251      0.0501       0.026
  R0019843             JUNCTION     0.000    0.796     0  00:25           0       0.787      -0.013
  R0019368             JUNCTION     0.000    0.795     0  00:26           0       0.787       0.007
  R0019369             JUNCTION     0.000    0.814     0  00:26           0       0.787      -0.002
  R0019370             JUNCTION     0.000    0.794     0  00:26           0       0.787       0.008
  R0019345             JUNCTION     0.000    0.055     0  00:25           0       0.049       0.062
  R0019346             JUNCTION     0.004    0.092     0  00:25      0.0031      0.0819       0.030
  R0043600             JUNCTION     0.000    0.098     0  00:25           0       0.095       0.081
  R0019203             JUNCTION     0.008    0.218     0  00:25     0.00685       0.213      -0.014
  R0043594             JUNCTION     0.052    0.075     0  00:25      0.0455      0.0651      -0.107
  R0021458             JUNCTION     0.041    0.112     0  00:25      0.0354       0.101      -0.020
  R0019202             JUNCTION     0.013    0.116     0  00:25      0.0105       0.111      -0.026
  R0019373             JUNCTION     0.033    0.033     0  00:25      0.0277      0.0277       0.019
  R0019254             JUNCTION     0.027    0.057     0  00:25      0.0225       0.049      -0.034
  R0019716             JUNCTION     0.041    0.446     0  00:25      0.0352       0.438      -0.029
  R0019946             JUNCTION     0.000    0.446     0  00:25           0       0.438       0.024
  R0013935             JUNCTION     0.025    0.025     0  00:25      0.0214      0.0214      -0.054
  R0019939             JUNCTION     0.009    0.035     0  00:25     0.00767      0.0291      -0.013
  R0019944             JUNCTION     0.024    0.565     0  00:26      0.0199       0.562       0.001
  R0043703             JUNCTION     0.029    0.471     0  00:25      0.0244       0.463       0.009
  R0019945             JUNCTION     0.000    0.551     0  00:26           0       0.542      -0.006
  R0039621             JUNCTION     0.000    0.002     0  00:21           0    0.000555       0.690
  R0019838             JUNCTION     0.056    0.056     0  00:25      0.0494      0.0499      -0.009
  R0039606             JUNCTION     0.000    0.108     0  00:25           0       0.101       0.102
  R0019204             JUNCTION     0.000    0.000     0  00:00           0           0       0.000 ltr
  R0019205             JUNCTION     0.000    0.000     0  00:00           0           0       0.000 ltr
  R0019849             JUNCTION     0.000    0.082     0  00:25           0      0.0792       0.022
  R0019371             JUNCTION     0.000    0.000     0  00:00           0           0       0.000 ltr
  R0019718             JUNCTION     0.035    0.244     0  00:25        0.03       0.243      -0.512
  R0021442             JUNCTION     0.041    0.082     0  00:25      0.0351      0.0795       0.024
  R0019247             JUNCTION     0.019    0.100     0  00:24      0.0154      0.0949      -0.068
  R0019719             JUNCTION     0.019    0.109     0  00:25      0.0162      0.0981      -0.016
  R0019767             JUNCTION     0.000    0.793     0  00:26           0       0.787      -0.009
  R0019768             JUNCTION     0.000    0.794     0  00:26           0       0.787       0.016
  R0021453             JUNCTION     0.023    0.023     0  00:25      0.0195      0.0195       0.056
  R0019839             JUNCTION     0.056    0.109     0  00:25      0.0488      0.0982      -0.020
  R0019717             JUNCTION     0.069    0.408     0  00:25      0.0615       0.404       0.130
  R0019252             JUNCTION     0.031    0.031     0  00:25      0.0265      0.0265      -0.055
  R0019721             JUNCTION     0.008    0.036     0  00:25     0.00674      0.0299       0.023
  R0019942             JUNCTION     0.000    0.057     0  00:25           0      0.0501       0.010
  R0019206             JUNCTION     0.000    0.000     0  00:00           0           0       0.000 ltr
  R0019840             JUNCTION     0.000    0.190     0  00:25           0       0.176       0.015
  R0043702             JUNCTION     0.056    0.243     0  00:25      0.0488       0.225      -0.007
  R0019723             JUNCTION     0.022    0.028     0  00:25      0.0184      0.0231      -0.104
  R0019724             JUNCTION     0.006    0.006     0  00:25     0.00475     0.00475      -0.112
  R0021433             JUNCTION     0.032    0.032     0  00:25      0.0275      0.0275      -0.226
  R0021435             JUNCTION     0.020    0.050     0  00:24      0.0168      0.0444       0.060
  R0019769             OUTFALL      0.000    0.795     0  00:26           0       0.787       0.000
  
  
  **********************
  Node Surcharge Summary
  **********************
  
  Surcharging occurs when water rises above the top of the highest conduit.
  ---------------------------------------------------------------------
                                               Max. Height   Min. Depth
                                   Hours       Above Crown    Below Rim
  Node                 Type      Surcharged         Meters       Meters
  ---------------------------------------------------------------------
  R0019466             JUNCTION        0.04          0.067        2.443
  R0019468             JUNCTION        0.04          0.038        2.392
  R0019939             JUNCTION        0.02          0.012        1.608
  R0019849             JUNCTION        0.04          0.044        1.886
  R0021442             JUNCTION        0.08          0.169        1.581
  R0021435             JUNCTION        0.05          0.127        1.683
  
  
  *********************
  Node Flooding Summary
  *********************
  
  No nodes were flooded.
  
  
  ***********************
  Outfall Loading Summary
  ***********************
  
  -----------------------------------------------------------
                         Flow       Avg       Max       Total
                         Freq      Flow      Flow      Volume
  Outfall Node           Pcnt       CMS       CMS    10^6 ltr
  -----------------------------------------------------------
  R0019769              58.06     0.063     0.795       0.787
  -----------------------------------------------------------
  System                58.06     0.063     0.795       0.787
  
  
  ********************
  Link Flow Summary
  ********************
  
  -----------------------------------------------------------------------------
                                 Maximum  Time of Max   Maximum    Max/    Max/
                                  |Flow|   Occurrence   |Veloc|    Full    Full
  Link                 Type          CMS  days hr:min     m/sec    Flow   Depth
  -----------------------------------------------------------------------------
  H0014431             CONDUIT     0.063     0  00:24      0.89    1.16    1.00
  H0014433             CONDUIT     0.029     0  00:25      0.67    0.37    0.60
  H0014352             CONDUIT     0.795     0  00:26      2.56    0.33    0.49
  H0014373             CONDUIT     0.794     0  00:26      3.43    0.37    0.39
  H0017981             CONDUIT     0.055     0  00:25      1.04    1.55    0.70
  H0017755             CONDUIT     0.097     0  00:26      1.27    0.79    0.59
  H0017791             CONDUIT     0.072     0  00:25      0.56    0.10    0.25
  H0017357             CONDUIT     0.000     0  00:25      0.01    0.00    0.29
  H0018216             CONDUIT     0.055     0  00:25      0.90    1.01    0.81
  H0016792             CONDUIT     0.446     0  00:25      1.68    0.26    0.44
  H0019507             CONDUIT     0.025     0  00:25      0.62    0.35    0.72
  H0019998             CONDUIT     0.565     0  00:26      2.77    0.23    0.36
  H0019576             CONDUIT     0.472     0  00:26      2.01    0.32    0.40
  H0020087             CONDUIT     0.004     0  00:26      0.08    0.02    0.32
  H0020211             CONDUIT     0.451     0  00:26      1.63    1.12    0.45
  H0018982             CONDUIT     0.108     0  00:25      0.75    0.17    0.28
  H0018753             CONDUIT     0.032     0  00:26      0.58    0.45    0.88
  H0018845             CONDUIT     0.000     0  00:00      0.00    0.00    0.00
  H0018863             CONDUIT     0.032     0  00:25      0.53    0.76    1.00
  H0019156             CONDUIT     0.000     0  00:00      0.00    0.00    0.00
  H0018929             CONDUIT     0.219     0  00:26      1.07    0.19    0.36
  H0018440             CONDUIT     0.082     0  00:25      1.16    1.46    1.00
  H0018456             CONDUIT     0.092     0  00:25      1.26    0.56    0.56
  H0018968             CONDUIT     0.794     0  00:26      3.91    0.30    0.36
  H0022036             CONDUIT     0.023     0  00:25      0.46    0.02    0.14
  H0021806             CONDUIT     0.098     0  00:25      1.10    0.87    0.67
  H0022111             CONDUIT     0.054     0  00:25      0.71    0.39    0.41
  H0021440             CONDUIT     0.410     0  00:25      2.03    0.26    0.36
  H0021704             CONDUIT     0.244     0  00:26      1.19    0.47    0.36
  H0020521             CONDUIT     0.031     0  00:25      0.59    0.62    0.70
  H0020755             CONDUIT     0.034     0  00:25      0.54    0.37    0.50
  H0020530             CONDUIT     0.814     0  00:26      2.52    0.70    0.51
  H0020618             CONDUIT     0.551     0  00:26      2.64    0.34    0.36
  H0021163             CONDUIT     0.057     0  00:25      1.14    0.96    0.76
  H0020497             CONDUIT     0.000     0  00:00      0.00    0.00    0.59
  H0024325             CONDUIT     0.108     0  00:25      1.62    0.32    0.37
  H0023585             CONDUIT     0.242     0  00:25      2.28    0.56    0.53
  H0024098             CONDUIT     0.082     0  00:25      1.15    0.95    1.00
  H0024235             CONDUIT     0.108     0  00:25      1.25    0.44    0.45
  H0024282             CONDUIT     0.000     0  00:00      0.00    0.00    0.00
  H0024308             CONDUIT     0.795     0  00:26      4.37    0.23    0.33
  H0024498             CONDUIT     0.082     0  00:25      1.20    1.27    0.94
  H0026990             CONDUIT     0.027     0  00:25      0.64    0.21    0.38
  H0041650             CONDUIT     0.115     0  00:25      0.73    0.13    0.30
  H0041011             CONDUIT     0.055     0  00:26      1.00    0.54    0.96
  H0045103             CONDUIT     0.107     0  00:25      0.73    0.13    0.28
  H0045104             CONDUIT     0.793     0  00:26      3.66    0.28    0.37
  H0045105             CONDUIT     0.006     0  00:25      0.31    0.10    0.31
  H0045106             CONDUIT     0.190     0  00:25      2.26    0.26    0.44
  H0045107             CONDUIT     0.031     0  00:26      0.67    0.51    1.00
  H0045108             CONDUIT     0.047     0  00:25      0.67    0.85    1.00
  
  
  ***************************
  Flow Classification Summary
  ***************************
  
  -------------------------------------------------------------------------------------
                      Adjusted    ---------- Fraction of Time in Flow Class ---------- 
                       /Actual         Up    Down  Sub   Sup   Up    Down  Norm  Inlet 
  Conduit               Length    Dry  Dry   Dry   Crit  Crit  Crit  Crit  Ltd   Ctrl  
  -------------------------------------------------------------------------------------
  H0014431                1.00   0.03  0.00  0.00  0.97  0.00  0.00  0.00  0.93  0.00
  H0014433                1.00   0.03  0.00  0.00  0.97  0.00  0.00  0.00  0.97  0.00
  H0014352                1.00   0.03  0.00  0.00  0.67  0.30  0.00  0.00  0.95  0.00
  H0014373                1.00   0.03  0.00  0.00  0.47  0.50  0.00  0.00  0.28  0.00
  H0017981                1.00   0.03  0.00  0.00  0.00  0.00  0.00  0.97  0.00  0.00
  H0017755                1.00   0.03  0.00  0.00  0.00  0.00  0.00  0.97  0.00  0.00
  H0017791                1.00   0.03  0.00  0.00  0.97  0.00  0.00  0.00  0.93  0.00
  H0017357                1.00   0.03  0.97  0.00  0.00  0.00  0.00  0.00  0.93  0.00
  H0018216                1.00   0.03  0.38  0.00  0.58  0.01  0.00  0.00  0.93  0.00
  H0016792                1.00   0.03  0.29  0.00  0.66  0.02  0.00  0.00  0.93  0.00
  H0019507                1.00   0.03  0.00  0.00  0.97  0.00  0.00  0.00  0.96  0.00
  H0019998                1.00   0.03  0.00  0.00  0.48  0.50  0.00  0.00  0.67  0.00
  H0019576                1.00   0.03  0.00  0.00  0.73  0.24  0.00  0.00  0.66  0.00
  H0020087                1.00   0.03  0.79  0.00  0.18  0.00  0.00  0.00  0.92  0.00
  H0020211                1.00   0.03  0.00  0.00  0.97  0.00  0.00  0.00  0.25  0.00
  H0018982                1.00   0.03  0.00  0.00  0.97  0.00  0.00  0.00  0.57  0.00
  H0018753                1.00   0.03  0.00  0.00  0.97  0.00  0.00  0.00  0.97  0.00
  H0018845                1.00   1.00  0.00  0.00  0.00  0.00  0.00  0.00  0.00  0.00
  H0018863                1.00   0.03  0.00  0.00  0.97  0.00  0.00  0.00  0.91  0.00
  H0019156                1.00   1.00  0.00  0.00  0.00  0.00  0.00  0.00  0.00  0.00
  H0018929                1.00   0.03  0.36  0.00  0.61  0.00  0.00  0.00  0.94  0.00
  H0018440                1.00   0.03  0.00  0.00  0.97  0.00  0.00  0.00  0.92  0.00
  H0018456                1.00   0.03  0.00  0.00  0.96  0.01  0.00  0.00  0.93  0.00
  H0018968                1.00   0.03  0.23  0.00  0.19  0.55  0.00  0.00  0.48  0.00
  H0022036                1.00   0.03  0.00  0.00  0.16  0.01  0.00  0.80  0.15  0.00
  H0021806                1.00   0.03  0.38  0.00  0.59  0.01  0.00  0.00  0.81  0.00
  H0022111                1.00   0.03  0.00  0.00  0.97  0.00  0.00  0.00  0.04  0.00
  H0021440                1.00   0.03  0.00  0.00  0.68  0.30  0.00  0.00  0.26  0.00
  H0021704                1.00   0.03  0.00  0.00  0.01  0.00  0.00  0.96  0.00  0.00
  H0020521                1.00   0.03  0.00  0.00  0.97  0.00  0.00  0.00  0.96  0.00
  H0020755                1.00   0.03  0.46  0.00  0.51  0.00  0.00  0.00  0.94  0.00
  H0020530                1.00   0.03  0.00  0.00  0.70  0.27  0.00  0.00  0.10  0.00
  H0020618                1.00   0.03  0.00  0.00  0.58  0.40  0.00  0.00  0.43  0.00
  H0021163                1.00   0.03  0.00  0.00  0.88  0.09  0.00  0.00  0.54  0.00
  H0020497                1.20   0.03  0.97  0.00  0.00  0.00  0.00  0.00  0.00  0.00
  H0024325                1.00   0.03  0.00  0.00  0.67  0.31  0.00  0.00  0.54  0.00
  H0023585                1.00   0.03  0.00  0.00  0.00  0.00  0.00  0.97  0.00  0.00
  H0024098                1.00   0.03  0.41  0.00  0.55  0.01  0.00  0.00  0.92  0.00
  H0024235                1.00   0.03  0.00  0.00  0.00  0.00  0.00  0.97  0.00  0.00
  H0024282                1.00   1.00  0.00  0.00  0.00  0.00  0.00  0.00  0.00  0.00
  H0024308                1.00   0.04  0.00  0.00  0.27  0.70  0.00  0.00  0.15  0.00
  H0024498                1.00   0.03  0.00  0.00  0.00  0.00  0.00  0.97  0.00  0.00
  H0026990                1.00   0.03  0.00  0.00  0.97  0.00  0.00  0.00  0.96  0.00
  H0041650                1.00   0.39  0.12  0.00  0.49  0.00  0.00  0.00  0.87  0.00
  H0041011                1.00   0.03  0.00  0.00  0.96  0.01  0.00  0.00  0.92  0.00
  H0045103                1.00   0.03  0.00  0.00  0.97  0.00  0.00  0.00  0.66  0.00
  H0045104                1.00   0.03  0.00  0.00  0.40  0.57  0.00  0.00  0.67  0.00
  H0045105                1.00   0.03  0.00  0.00  0.97  0.00  0.00  0.00  0.97  0.00
  H0045106                1.00   0.03  0.00  0.00  0.62  0.35  0.00  0.00  0.95  0.00
  H0045107                1.00   0.03  0.00  0.00  0.97  0.00  0.00  0.00  0.95  0.00
  H0045108                1.00   0.03  0.00  0.00  0.97  0.00  0.00  0.00  0.95  0.00
  
  
  *************************
  Conduit Surcharge Summary
  *************************
  
  ----------------------------------------------------------------------------
                                                           Hours        Hours 
                         --------- Hours Full --------   Above Full   Capacity
  Conduit                Both Ends  Upstream  Dnstream   Normal Flow   Limited
  ----------------------------------------------------------------------------
  H0014431                    0.04      0.04      0.04      0.07         0.04
  H0017981                    0.01      0.01      0.01      0.10         0.01
  H0018216                    0.01      0.01      0.01      0.01         0.01
  H0019507                    0.01      0.01      0.02      0.01         0.01
  H0020211                    0.01      0.01      0.01      0.05         0.01
  H0018753                    0.01      0.01      0.04      0.01         0.01
  H0018863                    0.02      0.02      0.04      0.01         0.01
  H0018440                    0.01      0.08      0.01      0.12         0.06
  H0024098                    0.04      0.04      0.10      0.01         0.01
  H0024498                    0.01      0.04      0.01      0.09         0.01
  H0041011                    0.01      0.01      0.04      0.01         0.01
  H0045107                    0.01      0.01      0.05      0.01         0.01
  H0045108                    0.05      0.05      0.08      0.01         0.01
  

  Analysis begun on:  Tue Mar 12 21:26:58 2024
  Analysis ended on:  Tue Mar 12 21:26:58 2024
  Total elapsed time: < 1 sec