
  EPA STORM WATER MANAGEMENT MODEL - VERSION 5.2 (Build 5.2.4)
  PYSWMM TOOLKIT API - VERSION v1.0 (2023-11-27)
  ------------------------------------------------------------

  Gievenbeck_e2_T20D540 
  
  ****************
  Analysis Options
  ****************
  Flow Units ............... CMS
  Process Models:
    Rainfall/Runoff ........ YES
    RDII ................... NO
    Snowmelt ............... NO
    Groundwater ............ NO
    Flow Routing ........... YES
    Ponding Allowed ........ NO
    Water Quality .......... NO
  Infiltration Method ...... HORTON
  Flow Routing Method ...... DYNWAVE
  Surcharge Method ......... SLOT
  Starting Date ............ 01/01/2024 00:00:00
  Ending Date .............. 01/04/2024 04:00:00
  Antecedent Dry Days ...... 14.0
  Report Time Step ......... 00:01:00
  Wet Time Step ............ 00:01:00
  Dry Time Step ............ 00:01:00
  Routing Time Step ........ 1.00 sec
  Variable Time Step ....... YES
  Maximum Trials ........... 8
  Number of Threads ........ 1
  Head Tolerance ........... 0.001500 m
  
  
  **************************        Volume         Depth
  Runoff Quantity Continuity     hectare-m            mm
  **************************     ---------       -------
  Total Precipitation ......         0.582        57.540
  Evaporation Loss .........         0.010         0.951
  Infiltration Loss ........         0.261        25.737
  Surface Runoff ...........         0.313        30.912
  Final Storage ............         0.000         0.000
  Continuity Error (%) .....        -0.104
  
  
  **************************        Volume        Volume
  Flow Routing Continuity        hectare-m      10^6 ltr
  **************************     ---------     ---------
  Dry Weather Inflow .......         0.000         0.000
  Wet Weather Inflow .......         0.313         3.129
  Groundwater Inflow .......         0.000         0.000
  RDII Inflow ..............         0.000         0.000
  External Inflow ..........         0.000         0.000
  External Outflow .........         0.306         3.059
  Flooding Loss ............         0.007         0.071
  Evaporation Loss .........         0.000         0.000
  Exfiltration Loss ........         0.000         0.000
  Initial Stored Volume ....         0.000         0.000
  Final Stored Volume ......         0.000         0.000
  Continuity Error (%) .....        -0.016
  
  
  *************************
  Highest Continuity Errors
  *************************
  Node R0019206 (9.62%)
  
  
  ***************************
  Time-Step Critical Elements
  ***************************
  None
  
  
  ********************************
  Highest Flow Instability Indexes
  ********************************
  All links are stable.
  
  
  *********************************
  Most Frequent Nonconverging Nodes
  *********************************
  Convergence obtained at all time steps.
  
  
  *************************
  Routing Time Step Summary
  *************************
  Minimum Time Step           :     0.50 sec
  Average Time Step           :     1.00 sec
  Maximum Time Step           :     1.00 sec
  % of Time in Steady State   :     0.00
  Average Iterations per Step :     2.00
  % of Steps Not Converging   :     0.00
  Time Step Frequencies       :
      1.000 -  0.871 sec      :    99.99 %
      0.871 -  0.758 sec      :     0.00 %
      0.758 -  0.660 sec      :     0.00 %
      0.660 -  0.574 sec      :     0.00 %
      0.574 -  0.500 sec      :     0.00 %
  
  
  ***************************
  Subcatchment Runoff Summary
  ***************************
  
  ------------------------------------------------------------------------------------------------------------------------------
                            Total      Total      Total      Total     Imperv       Perv      Total       Total     Peak  Runoff
                           Precip      Runon       Evap      Infil     Runoff     Runoff     Runoff      Runoff   Runoff   Coeff
  Subcatchment                 mm         mm         mm         mm         mm         mm         mm    10^6 ltr      CMS
  ------------------------------------------------------------------------------------------------------------------------------
  EZG_368                   57.54       0.00       0.95      25.91      27.86       7.05      30.74        0.13     0.14   0.534
  EZG_392                   57.54       0.00       0.94      25.76      27.87       7.21      30.90        0.10     0.11   0.537
  EZG_352                   57.54       0.00       0.95      26.16      27.86       6.81      30.49        0.18     0.19   0.530
  EZG_372                   57.54       0.00       0.93      25.26      27.89       7.72      31.43        0.04     0.05   0.546
  EZG_416                   57.54       0.00       0.94      25.69      27.87       7.28      30.97        0.09     0.10   0.538
  EZG_388                   57.54       0.00       0.95      25.98      27.86       6.99      30.67        0.14     0.15   0.533
  EZG_394                   57.54       0.00       0.94      25.66      27.87       7.31      31.00        0.09     0.10   0.539
  EZG_400                   57.54       0.00       0.94      25.62      27.88       7.36      31.05        0.08     0.09   0.540
  EZG_390                   57.54       0.00       0.94      25.74      27.87       7.23      30.92        0.10     0.11   0.537
  EZG_350                   57.54       0.00       0.95      25.98      27.86       6.98      30.67        0.14     0.15   0.533
  EZG_370                   57.54       0.00       0.94      25.82      27.87       7.15      30.83        0.11     0.12   0.536
  EZG_398                   57.54       0.00       0.93      25.10      27.90       7.89      31.60        0.03     0.04   0.549
  EZG_382                   57.54       0.00       0.93      25.04      27.90       7.94      31.66        0.03     0.04   0.550
  EZG_374                   57.54       0.00       1.14      21.24      33.43       6.81      35.22        0.13     0.15   0.612
  EZG_412                   57.54       0.00       0.92      24.70      27.91       8.30      32.03        0.01     0.02   0.557
  EZG_344                   57.54       0.00       0.94      25.61      27.88       7.37      31.06        0.08     0.09   0.540
  EZG_376                   57.54       0.00       0.94      25.47      27.88       7.51      31.21        0.06     0.08   0.542
  EZG_356                   57.54       0.00       0.95      26.21      27.85       6.75      30.43        0.19     0.20   0.529
  EZG_386                   57.54       0.00       0.96      26.37      27.85       6.59      30.26        0.24     0.25   0.526
  EZG_380                   57.54       0.00       0.94      25.88      27.87       7.09      30.78        0.12     0.13   0.535
  EZG_378                   57.54       0.00       0.94      25.79      27.87       7.18      30.86        0.11     0.12   0.536
  EZG_414                   57.54       0.00       0.93      25.04      27.90       7.95      31.66        0.03     0.04   0.550
  EZG_402                   57.54       0.00       0.94      25.76      27.87       7.21      30.90        0.10     0.11   0.537
  EZG_358                   57.54       0.00       0.95      26.20      27.85       6.76      30.44        0.19     0.20   0.529
  EZG_364                   57.54       0.00       0.95      26.20      27.85       6.76      30.43        0.19     0.20   0.529
  EZG_410                   57.54       0.00       0.94      25.50      27.88       7.48      31.18        0.07     0.08   0.542
  EZG_366                   57.54       0.00       0.94      25.57      27.88       7.40      31.10        0.07     0.09   0.540
  EZG_18259                 57.54       0.00       0.94      25.57      27.88       7.40      31.10        0.07     0.09   0.540
  EZG_18258                 57.54       0.00       0.93      24.88      27.91       8.12      31.84        0.02     0.03   0.553
  EZG_346                   57.54       0.00       0.92      26.29      27.31       7.17      30.38        0.11     0.12   0.528
  EZG_348                   57.54       0.00       0.92      25.99      27.32       7.48      30.71        0.07     0.08   0.534
  
  
  ******************
  Node Depth Summary
  ******************
  
  ---------------------------------------------------------------------------------
                                 Average  Maximum  Maximum  Time of Max    Reported
                                   Depth    Depth      HGL   Occurrence   Max Depth
  Node                 Type       Meters   Meters   Meters  days hr:min      Meters
  ---------------------------------------------------------------------------------
  R0019466             JUNCTION     0.01     2.26    71.71     0  05:05        2.14
  R0019468             JUNCTION     0.01     2.25    71.56     0  05:05        2.18
  R0019831             JUNCTION     0.01     1.66    70.83     0  05:03        1.66
  R0019825             JUNCTION     0.01     1.50    70.34     0  05:02        1.50
  R0019843             JUNCTION     0.01     1.55    69.18     0  05:04        1.34
  R0019368             JUNCTION     0.02     1.70    68.49     0  05:04        1.45
  R0019369             JUNCTION     0.01     0.85    67.44     0  05:06        0.84
  R0019370             JUNCTION     0.01     0.63    66.53     0  05:05        0.63
  R0019345             JUNCTION     0.01     1.31    71.21     0  05:05        1.29
  R0019346             JUNCTION     0.01     1.11    70.91     0  05:05        1.09
  R0043600             JUNCTION     0.01     0.79    70.46     0  05:06        0.77
  R0019203             JUNCTION     0.01     0.80    70.34     0  05:06        0.79
  R0043594             JUNCTION     0.01     0.57    70.30     0  05:07        0.57
  R0021458             JUNCTION     0.01     0.67    70.32     0  05:06        0.64
  R0019202             JUNCTION     0.01     0.77    70.35     0  05:06        0.73
  R0019373             JUNCTION     0.01     1.85    71.52     0  05:05        1.72
  R0019254             JUNCTION     0.01     2.02    72.06     0  05:05        2.01
  R0019716             JUNCTION     0.01     1.09    70.10     0  05:05        0.97
  R0019946             JUNCTION     0.02     1.26    69.88     0  05:05        1.11
  R0013935             JUNCTION     0.01     1.62    70.45     0  05:04        1.62
  R0019939             JUNCTION     0.01     1.65    70.22     0  05:05        1.61
  R0019944             JUNCTION     0.01     1.10    69.38     0  05:05        0.98
  R0043703             JUNCTION     0.01     1.10    69.70     0  05:05        0.93
  R0019945             JUNCTION     0.01     1.06    69.46     0  05:05        0.96
  R0039621             JUNCTION     0.00     1.56    71.13     0  05:04        1.56
  R0019838             JUNCTION     0.01     1.80    71.26     0  05:05        1.72
  R0039606             JUNCTION     0.01     0.77    70.36     0  05:06        0.71
  R0019204             JUNCTION     0.00     0.00    69.91     0  00:00        0.00
  R0019205             JUNCTION     0.00     0.00    69.62     0  00:00        0.00
  R0019849             JUNCTION     0.01     1.45    69.97     0  05:05        1.39
  R0019371             JUNCTION     0.00     0.00    70.41     0  00:00        0.00
  R0019718             JUNCTION     0.01     0.92    70.34     0  05:05        0.89
  R0021442             JUNCTION     0.01     2.05    72.10     0  05:02        2.05
  R0019247             JUNCTION     0.01     1.23    71.11     0  05:05        1.22
  R0019719             JUNCTION     0.01     0.87    70.55     0  05:05        0.83
  R0019767             JUNCTION     0.01     0.66    65.39     0  05:06        0.66
  R0019768             JUNCTION     0.01     0.55    64.32     0  05:06        0.54
  R0021453             JUNCTION     0.00     0.38    70.33     0  05:07        0.33
  R0019839             JUNCTION     0.01     1.78    71.17     0  05:04        1.77
  R0019717             JUNCTION     0.01     0.90    70.24     0  05:05        0.85
  R0019252             JUNCTION     0.01     1.94    72.13     0  05:03        1.94
  R0019721             JUNCTION     0.01     1.20    71.07     0  05:05        1.18
  R0019942             JUNCTION     0.01     1.39    70.04     0  05:05        1.35
  R0019206             JUNCTION     0.00     0.03    69.10     0  05:04        0.01
  R0019840             JUNCTION     0.01     1.78    70.75     0  05:05        1.72
  R0043702             JUNCTION     0.01     1.95    70.65     0  05:05        1.87
  R0019723             JUNCTION     0.00     1.12    71.20     0  05:05        1.11
  R0019724             JUNCTION     0.00     1.06    71.22     0  05:05        1.04
  R0021433             JUNCTION     0.01     2.15    72.54     0  05:02        2.15
  R0021435             JUNCTION     0.01     2.11    72.29     0  05:02        2.11
  R0019769             OUTFALL      0.01     0.55    63.93     0  05:06        0.54
  
  
  *******************
  Node Inflow Summary
  *******************
  
  -------------------------------------------------------------------------------------------------
                                  Maximum  Maximum                  Lateral       Total        Flow
                                  Lateral    Total  Time of Max      Inflow      Inflow     Balance
                                   Inflow   Inflow   Occurrence      Volume      Volume       Error
  Node                 Type           CMS      CMS  days hr:min    10^6 ltr    10^6 ltr     Percent
  -------------------------------------------------------------------------------------------------
  R0019466             JUNCTION     0.141    0.141     0  05:05       0.127       0.201       0.038
  R0019468             JUNCTION     0.088    0.164     0  05:04      0.0744       0.263      -0.018
  R0019831             JUNCTION     0.114    0.114     0  05:05         0.1         0.1       0.090
  R0019825             JUNCTION     0.115    0.215     0  05:05         0.1         0.2       0.101
  R0019843             JUNCTION     0.000    2.388     0  05:04           0        3.06      -0.021
  R0019368             JUNCTION     0.000    2.370     0  05:05           0        3.06      -0.023
  R0019369             JUNCTION     0.000    2.374     0  05:05           0        3.06      -0.016
  R0019370             JUNCTION     0.000    2.330     0  05:06           0        3.06       0.001
  R0019345             JUNCTION     0.000    0.160     0  05:03           0       0.187       0.014
  R0019346             JUNCTION     0.018    0.300     0  05:05      0.0128       0.321       0.006
  R0043600             JUNCTION     0.000    0.217     0  05:04           0       0.338      -0.084
  R0019203             JUNCTION     0.037    0.741     0  05:05       0.028       0.858      -0.012
  R0043594             JUNCTION     0.190    0.276     0  05:05        0.18       0.259      -0.008
  R0021458             JUNCTION     0.154    0.361     0  05:05       0.141         0.4      -0.002
  R0019202             JUNCTION     0.053    0.515     0  05:05      0.0425        0.49      -0.253
  R0019373             JUNCTION     0.125    0.188     0  05:05       0.111       0.124       0.883
  R0019254             JUNCTION     0.104    0.167     0  05:03      0.0902       0.188       0.029
  R0019716             JUNCTION     0.153    1.526     0  05:04        0.14        1.75      -0.006
  R0019946             JUNCTION     0.000    1.464     0  05:05           0        1.75      -0.001
  R0013935             JUNCTION     0.100    0.100     0  05:05       0.086       0.086       0.062
  R0019939             JUNCTION     0.041    0.123     0  05:04      0.0313       0.116      -0.060
  R0019944             JUNCTION     0.094    1.757     0  05:04        0.08        2.22       0.019
  R0043703             JUNCTION     0.112    1.578     0  05:05      0.0978        1.84      -0.005
  R0019945             JUNCTION     0.000    1.694     0  05:05           0        2.14      -0.001
  R0039621             JUNCTION     0.000    0.093     0  05:04           0     0.00603      -2.569
  R0019838             JUNCTION     0.204    0.207     0  05:04       0.195       0.199      -0.039
  R0039606             JUNCTION     0.000    0.356     0  05:08           0         0.4       0.027
  R0019204             JUNCTION     0.000    0.000     0  00:00           0           0       0.000 ltr
  R0019205             JUNCTION     0.000    0.000     0  00:00           0           0       0.000 ltr
  R0019849             JUNCTION     0.000    0.215     0  05:03           0       0.294      -0.001
  R0019371             JUNCTION     0.000    0.000     0  00:00           0           0       0.000 ltr
  R0019718             JUNCTION     0.134    0.832     0  05:05        0.12       0.977      -0.377
  R0021442             JUNCTION     0.146    0.218     0  05:05       0.134       0.287       0.020
  R0019247             JUNCTION     0.075    0.219     0  05:04      0.0622       0.338       0.099
  R0019719             JUNCTION     0.079    0.375     0  05:05      0.0655       0.387       0.492
  R0019767             JUNCTION     0.000    2.335     0  05:06           0        3.06      -0.003
  R0019768             JUNCTION     0.000    2.332     0  05:06           0        3.06       0.004
  R0021453             JUNCTION     0.092    0.092     0  05:05      0.0786      0.0786      -0.059
  R0019839             JUNCTION     0.202    0.369     0  05:04       0.193       0.386       0.048
  R0019717             JUNCTION     0.245    1.420     0  05:05       0.242        1.61       0.066
  R0019252             JUNCTION     0.120    0.120     0  05:05       0.106       0.106      -0.012
  R0019721             JUNCTION     0.036    0.144     0  05:05      0.0275       0.121       0.081
  R0019942             JUNCTION     0.000    0.123     0  05:02           0       0.178      -0.195
  R0019206             JUNCTION     0.000    0.022     0  05:04           0    8.34e-05      10.640
  R0019840             JUNCTION     0.000    0.486     0  05:04           0       0.648      -0.019
  R0043702             JUNCTION     0.202    0.675     0  05:05       0.193       0.841       0.286
  R0019723             JUNCTION     0.087    0.110     0  05:04      0.0739      0.0935      -0.122
  R0019724             JUNCTION     0.026    0.034     0  05:03      0.0195      0.0196      -0.299
  R0021433             JUNCTION     0.125    0.125     0  05:05       0.111       0.111      -0.091
  R0021435             JUNCTION     0.082    0.153     0  05:05      0.0683       0.171      -0.073
  R0019769             OUTFALL      0.000    2.334     0  05:06           0        3.06       0.000
  
  
  **********************
  Node Surcharge Summary
  **********************
  
  Surcharging occurs when water rises above the top of the highest conduit.
  ---------------------------------------------------------------------
                                               Max. Height   Min. Depth
                                   Hours       Above Crown    Below Rim
  Node                 Type      Surcharged         Meters       Meters
  ---------------------------------------------------------------------
  R0019466             JUNCTION        0.20          1.963        0.547
  R0019468             JUNCTION        0.19          1.954        0.476
  R0019831             JUNCTION        0.14          1.360        0.000
  R0019825             JUNCTION        0.17          1.200        0.000
  R0019843             JUNCTION        0.07          0.654        1.966
  R0019368             JUNCTION        0.10          0.804        0.246
  R0019345             JUNCTION        0.13          1.008        0.742
  R0019346             JUNCTION        0.10          0.706        1.034
  R0043600             JUNCTION        0.12          0.392        2.188
  R0019373             JUNCTION        0.14          1.551        0.949
  R0019254             JUNCTION        0.15          1.717        0.113
  R0019716             JUNCTION        0.03          0.188        1.532
  R0019946             JUNCTION        0.07          0.364        1.156
  R0013935             JUNCTION        0.14          1.320        0.000
  R0019939             JUNCTION        0.20          1.350        0.270
  R0019944             JUNCTION        0.02          0.199        1.331
  R0043703             JUNCTION        0.02          0.201        1.119
  R0019945             JUNCTION        0.02          0.163        1.297
  R0039621             JUNCTION        0.05          1.060        0.000
  R0019838             JUNCTION        0.05          1.300        0.000
  R0019849             JUNCTION        0.21          1.148        0.782
  R0019718             JUNCTION        0.01          0.024        1.976
  R0021442             JUNCTION        0.21          1.750        0.000
  R0019247             JUNCTION        0.14          0.825        1.035
  R0019719             JUNCTION        0.07          0.375        1.425
  R0019839             JUNCTION        0.06          1.284        0.366
  R0019252             JUNCTION        0.13          1.640        0.000
  R0019721             JUNCTION        0.09          0.802        0.758
  R0019942             JUNCTION        0.18          1.091        0.559
  R0019840             JUNCTION        0.08          1.284        1.286
  R0043702             JUNCTION        0.10          1.453        1.457
  R0019723             JUNCTION        0.07          0.717        0.603
  R0019724             JUNCTION        0.07          0.764        0.686
  R0021433             JUNCTION        0.16          1.850        0.000
  R0021435             JUNCTION        0.19          1.810        0.000
  
  
  *********************
  Node Flooding Summary
  *********************
  
  Flooding refers to all water that overflows a node, whether it ponds or not.
  --------------------------------------------------------------------------
                                                             Total   Maximum
                                 Maximum   Time of Max       Flood    Ponded
                        Hours       Rate    Occurrence      Volume     Depth
  Node                 Flooded       CMS   days hr:min    10^6 ltr    Meters
  --------------------------------------------------------------------------
  R0019831                0.03     0.014      0  05:05       0.001     0.000
  R0019825                0.08     0.123      0  05:05       0.022     0.000
  R0013935                0.03     0.022      0  05:05       0.001     0.000
  R0039621                0.01     0.088      0  05:05       0.002     0.000
  R0019838                0.01     0.029      0  05:05       0.000     0.000
  R0021442                0.07     0.074      0  05:05       0.011     0.000
  R0019252                0.05     0.078      0  05:05       0.008     0.000
  R0021433                0.07     0.053      0  05:05       0.008     0.000
  R0021435                0.08     0.081      0  05:05       0.018     0.000
  
  
  ***********************
  Outfall Loading Summary
  ***********************
  
  -----------------------------------------------------------
                         Flow       Avg       Max       Total
                         Freq      Flow      Flow      Volume
  Outfall Node           Pcnt       CMS       CMS    10^6 ltr
  -----------------------------------------------------------
  R0019769              14.47     0.077     2.334       3.059
  -----------------------------------------------------------
  System                14.47     0.077     2.334       3.059
  
  
  ********************
  Link Flow Summary
  ********************
  
  -----------------------------------------------------------------------------
                                 Maximum  Time of Max   Maximum    Max/    Max/
                                  |Flow|   Occurrence   |Veloc|    Full    Full
  Link                 Type          CMS  days hr:min     m/sec    Flow   Depth
  -----------------------------------------------------------------------------
  H0014431             CONDUIT     0.083     0  05:03      1.17    1.54    1.00
  H0014433             CONDUIT     0.100     0  05:05      1.42    1.28    1.00
  H0014352             CONDUIT     2.370     0  05:05      3.73    0.97    1.00
  H0014373             CONDUIT     2.330     0  05:06      4.30    1.08    0.82
  H0017981             CONDUIT     0.158     0  05:03      2.23    4.46    1.00
  H0017755             CONDUIT     0.216     0  05:05      1.72    1.75    1.00
  H0017791             CONDUIT     0.247     0  05:08      0.72    0.36    0.68
  H0017357             CONDUIT     0.183     0  05:05      2.59    2.92    1.00
  H0018216             CONDUIT     0.160     0  05:03      2.27    2.92    1.00
  H0016792             CONDUIT     1.464     0  05:05      2.30    0.84    1.00
  H0019507             CONDUIT     0.085     0  05:04      1.20    1.18    1.00
  H0019998             CONDUIT     1.803     0  05:04      3.45    0.72    1.00
  H0019576             CONDUIT     1.493     0  05:05      2.61    1.00    1.00
  H0020087             CONDUIT     0.093     0  05:04      0.48    0.41    1.00
  H0020211             CONDUIT     1.477     0  05:05      2.32    3.68    1.00
  H0018982             CONDUIT     0.356     0  05:08      0.92    0.57    0.78
  H0018753             CONDUIT     0.071     0  05:05      1.01    1.01    1.00
  H0018845             CONDUIT     0.000     0  00:00      0.00    0.00    0.00
  H0018863             CONDUIT     0.120     0  05:04      1.69    2.81    1.00
  H0019156             CONDUIT     0.000     0  00:00      0.00    0.00    0.00
  H0018929             CONDUIT     0.717     0  05:05      1.45    0.62    0.94
  H0018440             CONDUIT     0.159     0  05:02      2.25    2.85    1.00
  H0018456             CONDUIT     0.300     0  05:05      2.39    1.82    1.00
  H0018968             CONDUIT     2.332     0  05:06      5.12    0.90    0.67
  H0022036             CONDUIT     0.091     0  05:05      0.56    0.07    0.51
  H0021806             CONDUIT     0.217     0  05:04      1.73    1.92    1.00
  H0022111             CONDUIT     0.177     0  05:05      0.91    1.26    1.00
  H0021440             CONDUIT     1.374     0  05:04      2.53    0.89    1.00
  H0021704             CONDUIT     0.820     0  05:06      1.70    1.56    0.96
  H0020521             CONDUIT     0.081     0  05:03      1.15    1.65    1.00
  H0020755             CONDUIT     0.142     0  05:05      1.13    1.56    1.00
  H0020530             CONDUIT     2.374     0  05:05      3.73    2.03    1.00
  H0020618             CONDUIT     1.688     0  05:07      3.35    1.05    1.00
  H0021163             CONDUIT     0.123     0  05:02      1.75    2.06    1.00
  H0020497             CONDUIT     0.022     0  05:04      0.31    0.05    1.00
  H0024325             CONDUIT     0.344     0  05:05      1.86    1.03    1.00
  H0023585             CONDUIT     0.665     0  05:05      3.39    1.53    1.00
  H0024098             CONDUIT     0.212     0  05:03      3.00    2.47    1.00
  H0024235             CONDUIT     0.374     0  05:05      1.90    1.53    1.00
  H0024282             CONDUIT     0.000     0  00:00      0.00    0.00    0.05
  H0024308             CONDUIT     2.334     0  05:06      5.77    0.68    0.61
  H0024498             CONDUIT     0.157     0  05:03      2.23    2.44    1.00
  H0026990             CONDUIT     0.108     0  05:05      0.86    0.82    1.00
  H0041650             CONDUIT     0.506     0  05:05      1.11    0.59    0.86
  H0041011             CONDUIT     0.116     0  05:02      1.65    1.15    1.00
  H0045103             CONDUIT     0.384     0  05:08      1.01    0.48    0.85
  H0045104             CONDUIT     2.335     0  05:06      4.79    0.83    0.72
  H0045105             CONDUIT     0.027     0  05:05      0.46    0.47    1.00
  H0045106             CONDUIT     0.474     0  05:05      2.41    0.64    1.00
  H0045107             CONDUIT     0.072     0  05:06      1.01    1.18    1.00
  H0045108             CONDUIT     0.090     0  05:07      1.28    1.62    1.00
  
  
  ***************************
  Flow Classification Summary
  ***************************
  
  -------------------------------------------------------------------------------------
                      Adjusted    ---------- Fraction of Time in Flow Class ---------- 
                       /Actual         Up    Down  Sub   Sup   Up    Down  Norm  Inlet 
  Conduit               Length    Dry  Dry   Dry   Crit  Crit  Crit  Crit  Ltd   Ctrl  
  -------------------------------------------------------------------------------------
  H0014431                1.00   0.03  0.00  0.00  0.97  0.00  0.00  0.00  0.96  0.00
  H0014433                1.00   0.03  0.00  0.00  0.97  0.00  0.00  0.00  0.96  0.00
  H0014352                1.00   0.03  0.00  0.00  0.85  0.12  0.00  0.00  0.96  0.00
  H0014373                1.00   0.03  0.00  0.00  0.83  0.14  0.00  0.00  0.81  0.00
  H0017981                1.00   0.03  0.00  0.00  0.00  0.00  0.00  0.97  0.00  0.00
  H0017755                1.00   0.03  0.00  0.00  0.00  0.00  0.00  0.96  0.00  0.00
  H0017791                1.00   0.03  0.00  0.00  0.97  0.00  0.00  0.00  0.96  0.00
  H0017357                1.00   0.03  0.96  0.00  0.00  0.00  0.00  0.00  0.93  0.00
  H0018216                1.00   0.03  0.82  0.00  0.15  0.00  0.00  0.00  0.96  0.00
  H0016792                1.00   0.03  0.81  0.00  0.15  0.00  0.00  0.00  0.96  0.00
  H0019507                1.00   0.03  0.00  0.00  0.97  0.00  0.00  0.00  0.96  0.00
  H0019998                1.00   0.03  0.00  0.00  0.83  0.14  0.00  0.00  0.15  0.00
  H0019576                1.00   0.03  0.00  0.00  0.85  0.11  0.00  0.00  0.14  0.00
  H0020087                1.00   0.03  0.95  0.00  0.02  0.00  0.00  0.00  0.93  0.00
  H0020211                1.00   0.03  0.00  0.00  0.97  0.00  0.00  0.00  0.81  0.00
  H0018982                1.00   0.03  0.00  0.00  0.97  0.00  0.00  0.00  0.84  0.00
  H0018753                1.00   0.03  0.00  0.00  0.97  0.00  0.00  0.00  0.96  0.00
  H0018845                1.00   1.00  0.00  0.00  0.00  0.00  0.00  0.00  0.00  0.00
  H0018863                1.00   0.03  0.00  0.00  0.97  0.00  0.00  0.00  0.96  0.00
  H0019156                1.00   1.00  0.00  0.00  0.00  0.00  0.00  0.00  0.00  0.00
  H0018929                1.00   0.03  0.82  0.00  0.15  0.00  0.00  0.00  0.96  0.00
  H0018440                1.00   0.03  0.00  0.00  0.97  0.00  0.00  0.00  0.96  0.00
  H0018456                1.00   0.03  0.00  0.00  0.97  0.00  0.00  0.00  0.96  0.00
  H0018968                1.00   0.03  0.00  0.00  0.82  0.14  0.00  0.00  0.83  0.00
  H0022036                1.00   0.03  0.00  0.00  0.04  0.04  0.00  0.89  0.03  0.00
  H0021806                1.00   0.03  0.82  0.00  0.15  0.00  0.00  0.00  0.85  0.00
  H0022111                1.00   0.03  0.00  0.00  0.97  0.00  0.00  0.00  0.00  0.00
  H0021440                1.00   0.03  0.00  0.00  0.85  0.12  0.00  0.00  0.02  0.00
  H0021704                1.00   0.03  0.00  0.00  0.00  0.00  0.00  0.96  0.00  0.00
  H0020521                1.00   0.03  0.00  0.00  0.97  0.00  0.00  0.00  0.96  0.00
  H0020755                1.00   0.03  0.83  0.00  0.14  0.00  0.00  0.00  0.96  0.00
  H0020530                1.00   0.03  0.00  0.00  0.85  0.12  0.00  0.00  0.02  0.00
  H0020618                1.00   0.03  0.00  0.00  0.84  0.13  0.00  0.00  0.84  0.00
  H0021163                1.00   0.03  0.00  0.00  0.95  0.01  0.00  0.00  0.83  0.00
  H0020497                1.20   0.03  0.97  0.00  0.00  0.00  0.00  0.00  0.93  0.00
  H0024325                1.00   0.03  0.00  0.00  0.85  0.12  0.00  0.00  0.83  0.00
  H0023585                1.00   0.03  0.00  0.00  0.00  0.00  0.00  0.97  0.00  0.00
  H0024098                1.00   0.03  0.82  0.00  0.14  0.00  0.00  0.00  0.96  0.00
  H0024235                1.00   0.03  0.00  0.00  0.00  0.00  0.00  0.96  0.00  0.00
  H0024282                1.00   1.00  0.00  0.00  0.00  0.00  0.00  0.00  0.00  0.00
  H0024308                1.00   0.03  0.00  0.00  0.81  0.15  0.00  0.00  0.05  0.00
  H0024498                1.00   0.03  0.00  0.00  0.00  0.00  0.00  0.97  0.00  0.00
  H0026990                1.00   0.03  0.00  0.00  0.97  0.00  0.00  0.00  0.96  0.00
  H0041650                1.00   0.85  0.01  0.00  0.14  0.00  0.00  0.00  0.95  0.00
  H0041011                1.00   0.03  0.00  0.00  0.96  0.00  0.00  0.00  0.96  0.00
  H0045103                1.00   0.03  0.00  0.00  0.97  0.00  0.00  0.00  0.85  0.00
  H0045104                1.00   0.03  0.00  0.00  0.82  0.14  0.00  0.00  0.15  0.00
  H0045105                1.00   0.03  0.00  0.00  0.97  0.00  0.00  0.00  0.97  0.00
  H0045106                1.00   0.03  0.82  0.00  0.02  0.13  0.00  0.00  0.96  0.00
  H0045107                1.00   0.03  0.00  0.00  0.97  0.00  0.00  0.00  0.96  0.00
  H0045108                1.00   0.03  0.00  0.00  0.97  0.00  0.00  0.00  0.96  0.00
  
  
  *************************
  Conduit Surcharge Summary
  *************************
  
  ----------------------------------------------------------------------------
                                                           Hours        Hours 
                         --------- Hours Full --------   Above Full   Capacity
  Conduit                Both Ends  Upstream  Dnstream   Normal Flow   Limited
  ----------------------------------------------------------------------------
  H0014431                    0.19      0.20      0.19      0.20         0.17
  H0014433                    0.14      0.14      0.17      0.06         0.05
  H0014352                    0.07      0.07      0.10      0.01         0.01
  H0014373                    0.01      0.01      0.01      0.05         0.01
  H0017981                    0.10      0.13      0.10      0.24         0.12
  H0017755                    0.11      0.12      0.11      0.15         0.12
  H0017357                    0.07      0.07      0.14      0.09         0.01
  H0018216                    0.13      0.15      0.13      0.17         0.14
  H0016792                    0.03      0.03      0.07      0.01         0.01
  H0019507                    0.14      0.14      0.20      0.05         0.04
  H0019998                    0.02      0.02      0.07      0.01         0.01
  H0019576                    0.01      0.02      0.02      0.01         0.01
  H0020087                    0.05      0.05      0.05      0.01         0.01
  H0020211                    0.02      0.07      0.02      0.21         0.04
  H0018753                    0.14      0.14      0.20      0.01         0.01
  H0018863                    0.20      0.20      0.21      0.13         0.12
  H0018929                    0.01      0.01      0.01      0.01         0.01
  H0018440                    0.17      0.21      0.17      0.26         0.20
  H0018456                    0.09      0.10      0.09      0.12         0.10
  H0021806                    0.12      0.14      0.12      0.16         0.13
  H0022111                    0.05      0.05      0.06      0.04         0.03
  H0021440                    0.01      0.01      0.03      0.01         0.01
  H0021704                    0.01      0.01      0.01      0.12         0.01
  H0020521                    0.13      0.13      0.15      0.09         0.09
  H0020755                    0.09      0.09      0.10      0.05         0.05
  H0020530                    0.01      0.10      0.01      0.15         0.09
  H0020618                    0.02      0.02      0.02      0.04         0.01
  H0021163                    0.17      0.17      0.18      0.16         0.15
  H0020497                    0.01      0.01     70.92      0.01         0.01
  H0024325                    0.06      0.06      0.08      0.01         0.01
  H0023585                    0.08      0.10      0.08      0.11         0.10
  H0024098                    0.21      0.21      0.25      0.18         0.17
  H0024235                    0.06      0.07      0.06      0.08         0.06
  H0024498                    0.09      0.19      0.09      0.23         0.16
  H0026990                    0.07      0.07      0.09      0.01         0.01
  H0041011                    0.18      0.18      0.21      0.05         0.04
  H0045105                    0.07      0.07      0.08      0.01         0.01
  H0045106                    0.08      0.08      0.10      0.01         0.01
  H0045107                    0.16      0.16      0.19      0.08         0.08
  H0045108                    0.19      0.19      0.21      0.15         0.15
  

  Analysis begun on:  Fri Mar 22 15:55:53 2024
  Analysis ended on:  Fri Mar 22 15:56:03 2024
  Total elapsed time: 00:00:10