
  EPA STORM WATER MANAGEMENT MODEL - VERSION 5.2 (Build 5.2.4)
  PYSWMM TOOLKIT API - VERSION v1.0 (2023-11-27)
  ------------------------------------------------------------

  Gievenbeck_2023-07-09 16 30 00_hN17 94 
  
  ****************
  Analysis Options
  ****************
  Flow Units ............... CMS
  Process Models:
    Rainfall/Runoff ........ YES
    RDII ................... NO
    Snowmelt ............... NO
    Groundwater ............ NO
    Flow Routing ........... YES
    Ponding Allowed ........ NO
    Water Quality .......... NO
  Infiltration Method ...... HORTON
  Flow Routing Method ...... DYNWAVE
  Surcharge Method ......... SLOT
  Starting Date ............ 01/01/2024 00:00:00
  Ending Date .............. 01/04/2024 04:00:00
  Antecedent Dry Days ...... 14.0
  Report Time Step ......... 00:01:00
  Wet Time Step ............ 00:01:00
  Dry Time Step ............ 00:01:00
  Routing Time Step ........ 1.00 sec
  Variable Time Step ....... YES
  Maximum Trials ........... 8
  Number of Threads ........ 1
  Head Tolerance ........... 0.001500 m
  
  
  **************************        Volume         Depth
  Runoff Quantity Continuity     hectare-m            mm
  **************************     ---------       -------
  Total Precipitation ......         0.182        17.940
  Evaporation Loss .........         0.010         0.947
  Infiltration Loss ........         0.103        10.128
  Surface Runoff ...........         0.070         6.884
  Final Storage ............         0.000         0.000
  Continuity Error (%) .....        -0.103
  
  
  **************************        Volume        Volume
  Flow Routing Continuity        hectare-m      10^6 ltr
  **************************     ---------     ---------
  Dry Weather Inflow .......         0.000         0.000
  Wet Weather Inflow .......         0.070         0.697
  Groundwater Inflow .......         0.000         0.000
  RDII Inflow ..............         0.000         0.000
  External Inflow ..........         0.000         0.000
  External Outflow .........         0.070         0.698
  Flooding Loss ............         0.000         0.000
  Evaporation Loss .........         0.000         0.000
  Exfiltration Loss ........         0.000         0.000
  Initial Stored Volume ....         0.000         0.000
  Final Stored Volume ......         0.000         0.000
  Continuity Error (%) .....        -0.216
  
  
  *************************
  Highest Continuity Errors
  *************************
  Node R0019718 (-1.71%)
  
  
  ***************************
  Time-Step Critical Elements
  ***************************
  None
  
  
  ********************************
  Highest Flow Instability Indexes
  ********************************
  All links are stable.
  
  
  *********************************
  Most Frequent Nonconverging Nodes
  *********************************
  Convergence obtained at all time steps.
  
  
  *************************
  Routing Time Step Summary
  *************************
  Minimum Time Step           :     0.77 sec
  Average Time Step           :     1.00 sec
  Maximum Time Step           :     1.00 sec
  % of Time in Steady State   :     0.00
  Average Iterations per Step :     2.00
  % of Steps Not Converging   :     0.00
  Time Step Frequencies       :
      1.000 -  0.871 sec      :   100.00 %
      0.871 -  0.758 sec      :     0.00 %
      0.758 -  0.660 sec      :     0.00 %
      0.660 -  0.574 sec      :     0.00 %
      0.574 -  0.500 sec      :     0.00 %
  
  
  ***************************
  Subcatchment Runoff Summary
  ***************************
  
  ------------------------------------------------------------------------------------------------------------------------------
                            Total      Total      Total      Total     Imperv       Perv      Total       Total     Peak  Runoff
                           Precip      Runon       Evap      Infil     Runoff     Runoff     Runoff      Runoff   Runoff   Coeff
  Subcatchment                 mm         mm         mm         mm         mm         mm         mm    10^6 ltr      CMS
  ------------------------------------------------------------------------------------------------------------------------------
  EZG_368                   17.94       0.00       0.94      10.18       8.05       0.00       6.84        0.03     0.03   0.381
  EZG_392                   17.94       0.00       0.94      10.18       8.05       0.00       6.84        0.02     0.02   0.381
  EZG_352                   17.94       0.00       0.95      10.18       8.04       0.00       6.83        0.04     0.04   0.381
  EZG_372                   17.94       0.00       0.93      10.18       8.07       0.00       6.86        0.01     0.01   0.382
  EZG_416                   17.94       0.00       0.94      10.18       8.05       0.00       6.85        0.02     0.02   0.382
  EZG_388                   17.94       0.00       0.94      10.18       8.05       0.00       6.84        0.03     0.03   0.381
  EZG_394                   17.94       0.00       0.94      10.18       8.05       0.00       6.85        0.02     0.02   0.382
  EZG_400                   17.94       0.00       0.93      10.18       8.06       0.00       6.85        0.02     0.02   0.382
  EZG_390                   17.94       0.00       0.94      10.18       8.05       0.00       6.84        0.02     0.02   0.382
  EZG_350                   17.94       0.00       0.94      10.18       8.05       0.00       6.84        0.03     0.03   0.381
  EZG_370                   17.94       0.00       0.94      10.18       8.05       0.00       6.84        0.02     0.03   0.381
  EZG_398                   17.94       0.00       0.93      10.18       8.07       0.00       6.86        0.01     0.01   0.382
  EZG_382                   17.94       0.00       0.92      10.18       8.07       0.00       6.86        0.01     0.01   0.383
  EZG_374                   17.94       0.00       1.13       8.62       9.65       0.00       8.20        0.03     0.03   0.457
  EZG_412                   17.94       0.00       0.92      10.18       8.09       0.00       6.87        0.00     0.00   0.383
  EZG_344                   17.94       0.00       0.93      10.18       8.06       0.00       6.85        0.02     0.02   0.382
  EZG_376                   17.94       0.00       0.93      10.18       8.06       0.00       6.85        0.01     0.02   0.382
  EZG_356                   17.94       0.00       0.95      10.18       8.04       0.00       6.83        0.04     0.05   0.381
  EZG_386                   17.94       0.00       0.95      10.18       8.03       0.00       6.83        0.05     0.06   0.381
  EZG_380                   17.94       0.00       0.94      10.18       8.05       0.00       6.84        0.03     0.03   0.381
  EZG_378                   17.94       0.00       0.94      10.18       8.05       0.00       6.84        0.02     0.03   0.381
  EZG_414                   17.94       0.00       0.92      10.18       8.07       0.00       6.86        0.01     0.01   0.383
  EZG_402                   17.94       0.00       0.94      10.18       8.05       0.00       6.84        0.02     0.02   0.381
  EZG_358                   17.94       0.00       0.95      10.18       8.04       0.00       6.83        0.04     0.05   0.381
  EZG_364                   17.94       0.00       0.95      10.18       8.04       0.00       6.83        0.04     0.05   0.381
  EZG_410                   17.94       0.00       0.93      10.18       8.06       0.00       6.85        0.01     0.02   0.382
  EZG_366                   17.94       0.00       0.93      10.18       8.06       0.00       6.85        0.02     0.02   0.382
  EZG_18259                 17.94       0.00       0.93      10.18       8.06       0.00       6.85        0.02     0.02   0.382
  EZG_18258                 17.94       0.00       0.92      10.18       8.08       0.00       6.87        0.00     0.00   0.383
  EZG_346                   17.94       0.00       0.92      10.33       7.89       0.00       6.71        0.02     0.03   0.374
  EZG_348                   17.94       0.00       0.91      10.33       7.90       0.00       6.71        0.01     0.02   0.374
  
  
  ******************
  Node Depth Summary
  ******************
  
  ---------------------------------------------------------------------------------
                                 Average  Maximum  Maximum  Time of Max    Reported
                                   Depth    Depth      HGL   Occurrence   Max Depth
  Node                 Type       Meters   Meters   Meters  days hr:min      Meters
  ---------------------------------------------------------------------------------
  R0019466             JUNCTION     0.00     0.27    69.72     0  02:20        0.26
  R0019468             JUNCTION     0.00     0.28    69.59     0  02:20        0.27
  R0019831             JUNCTION     0.00     0.12    69.29     0  02:20        0.12
  R0019825             JUNCTION     0.00     0.20    69.04     0  02:20        0.20
  R0019843             JUNCTION     0.00     0.33    67.96     0  02:21        0.33
  R0019368             JUNCTION     0.00     0.49    67.28     0  02:21        0.49
  R0019369             JUNCTION     0.00     0.35    66.94     0  02:21        0.35
  R0019370             JUNCTION     0.00     0.30    66.20     0  02:21        0.30
  R0019345             JUNCTION     0.00     0.22    70.12     0  02:20        0.22
  R0019346             JUNCTION     0.00     0.20    70.00     0  02:20        0.20
  R0043600             JUNCTION     0.00     0.22    69.89     0  02:20        0.22
  R0019203             JUNCTION     0.00     0.26    69.80     0  02:20        0.26
  R0043594             JUNCTION     0.00     0.19    69.92     0  02:20        0.19
  R0021458             JUNCTION     0.00     0.23    69.88     0  02:20        0.23
  R0019202             JUNCTION     0.00     0.23    69.81     0  02:20        0.23
  R0019373             JUNCTION     0.00     0.13    69.80     0  02:20        0.13
  R0019254             JUNCTION     0.00     0.21    70.25     0  02:20        0.21
  R0019716             JUNCTION     0.00     0.30    69.31     0  02:20        0.29
  R0019946             JUNCTION     0.00     0.43    69.05     0  02:20        0.43
  R0013935             JUNCTION     0.00     0.11    68.94     0  02:20        0.11
  R0019939             JUNCTION     0.00     0.25    68.82     0  02:21        0.25
  R0019944             JUNCTION     0.00     0.27    68.55     0  02:21        0.27
  R0043703             JUNCTION     0.00     0.32    68.92     0  02:21        0.32
  R0019945             JUNCTION     0.00     0.33    68.73     0  02:21        0.33
  R0039621             JUNCTION     0.00     0.09    69.66     0  02:20        0.09
  R0019838             JUNCTION     0.00     0.20    69.66     0  02:20        0.20
  R0039606             JUNCTION     0.00     0.23    69.82     0  02:20        0.23
  R0019204             JUNCTION     0.00     0.00    69.91     0  00:00        0.00
  R0019205             JUNCTION     0.00     0.00    69.62     0  00:00        0.00
  R0019849             JUNCTION     0.00     0.29    68.81     0  02:21        0.28
  R0019371             JUNCTION     0.00     0.00    70.41     0  00:00        0.00
  R0019718             JUNCTION     0.00     0.34    69.76     0  02:21        0.34
  R0021442             JUNCTION     0.00     0.35    70.40     0  02:20        0.35
  R0019247             JUNCTION     0.00     0.26    70.14     0  02:20        0.26
  R0019719             JUNCTION     0.00     0.21    69.89     0  02:20        0.21
  R0019767             JUNCTION     0.00     0.32    65.05     0  02:21        0.32
  R0019768             JUNCTION     0.00     0.27    64.04     0  02:22        0.27
  R0021453             JUNCTION     0.00     0.08    70.03     0  02:20        0.08
  R0019839             JUNCTION     0.00     0.18    69.57     0  02:20        0.18
  R0019717             JUNCTION     0.00     0.29    69.63     0  02:20        0.29
  R0019252             JUNCTION     0.00     0.15    70.34     0  02:20        0.15
  R0019721             JUNCTION     0.00     0.16    70.03     0  02:20        0.16
  R0019942             JUNCTION     0.00     0.15    68.80     0  02:20        0.15
  R0019206             JUNCTION     0.00     0.00    69.07     0  00:00        0.00
  R0019840             JUNCTION     0.00     0.16    69.13     0  02:20        0.16
  R0043702             JUNCTION     0.00     0.24    68.94     0  02:20        0.24
  R0019723             JUNCTION     0.00     0.11    70.19     0  02:20        0.11
  R0019724             JUNCTION     0.00     0.06    70.22     0  02:20        0.06
  R0021433             JUNCTION     0.00     0.14    70.53     0  02:20        0.14
  R0021435             JUNCTION     0.00     0.28    70.46     0  02:20        0.28
  R0019769             OUTFALL      0.00     0.27    63.65     0  02:22        0.27
  
  
  *******************
  Node Inflow Summary
  *******************
  
  -------------------------------------------------------------------------------------------------
                                  Maximum  Maximum                  Lateral       Total        Flow
                                  Lateral    Total  Time of Max      Inflow      Inflow     Balance
                                   Inflow   Inflow   Occurrence      Volume      Volume       Error
  Node                 Type           CMS      CMS  days hr:min    10^6 ltr    10^6 ltr     Percent
  -------------------------------------------------------------------------------------------------
  R0019466             JUNCTION     0.031    0.058     0  02:20      0.0283      0.0528      -0.005
  R0019468             JUNCTION     0.019    0.074     0  02:20      0.0164      0.0692       0.012
  R0019831             JUNCTION     0.025    0.025     0  02:20      0.0222      0.0222      -0.104
  R0019825             JUNCTION     0.025    0.050     0  02:20      0.0222      0.0444      -0.014
  R0019843             JUNCTION     0.000    0.687     0  02:21           0       0.698      -0.019
  R0019368             JUNCTION     0.000    0.687     0  02:21           0       0.698       0.002
  R0019369             JUNCTION     0.000    0.695     0  02:21           0       0.698      -0.005
  R0019370             JUNCTION     0.000    0.686     0  02:21           0       0.698       0.011
  R0019345             JUNCTION     0.000    0.047     0  02:20           0      0.0434       0.106
  R0019346             JUNCTION     0.003    0.079     0  02:20     0.00274      0.0726       0.043
  R0043600             JUNCTION     0.000    0.084     0  02:20           0      0.0842       0.129
  R0019203             JUNCTION     0.007    0.188     0  02:20     0.00607       0.189      -0.006
  R0043594             JUNCTION     0.044    0.063     0  02:20      0.0404      0.0577      -0.273
  R0021458             JUNCTION     0.035    0.095     0  02:20      0.0314      0.0892      -0.019
  R0019202             JUNCTION     0.011    0.100     0  02:20     0.00928      0.0985      -0.024
  R0019373             JUNCTION     0.027    0.027     0  02:20      0.0245      0.0245      -0.045
  R0019254             JUNCTION     0.022    0.048     0  02:20      0.0199      0.0434      -0.052
  R0019716             JUNCTION     0.034    0.384     0  02:20      0.0312       0.389      -0.039
  R0019946             JUNCTION     0.000    0.384     0  02:20           0        0.39       0.040
  R0013935             JUNCTION     0.021    0.021     0  02:20       0.019       0.019      -0.126
  R0019939             JUNCTION     0.008    0.029     0  02:20     0.00679      0.0258      -0.008
  R0019944             JUNCTION     0.020    0.488     0  02:21      0.0176       0.499       0.003
  R0043703             JUNCTION     0.024    0.406     0  02:21      0.0217       0.411       0.002
  R0019945             JUNCTION     0.000    0.475     0  02:21           0       0.481      -0.000
  R0039621             JUNCTION     0.000    0.003     0  02:15           0    0.000438       1.523
  R0019838             JUNCTION     0.047    0.047     0  02:20      0.0438      0.0442      -0.018
  R0039606             JUNCTION     0.000    0.092     0  02:20           0      0.0893       0.143
  R0019204             JUNCTION     0.000    0.000     0  00:00           0           0       0.000 ltr
  R0019205             JUNCTION     0.000    0.000     0  00:00           0           0       0.000 ltr
  R0019849             JUNCTION     0.000    0.072     0  02:19           0      0.0702       0.040
  R0019371             JUNCTION     0.000    0.000     0  00:00           0           0       0.000 ltr
  R0019718             JUNCTION     0.030    0.213     0  02:20      0.0266       0.215      -1.686
  R0021442             JUNCTION     0.034    0.071     0  02:19      0.0311      0.0704       0.004
  R0019247             JUNCTION     0.016    0.084     0  02:19      0.0137      0.0841      -0.111
  R0019719             JUNCTION     0.016    0.094     0  02:20      0.0144       0.087      -0.023
  R0019767             JUNCTION     0.000    0.685     0  02:21           0       0.698      -0.007
  R0019768             JUNCTION     0.000    0.686     0  02:22           0       0.698       0.022
  R0021453             JUNCTION     0.020    0.020     0  02:20      0.0173      0.0173       0.187
  R0019839             JUNCTION     0.047    0.092     0  02:20      0.0433       0.087      -0.044
  R0019717             JUNCTION     0.058    0.353     0  02:20      0.0545        0.36       0.622
  R0019252             JUNCTION     0.026    0.026     0  02:20      0.0235      0.0235      -0.109
  R0019721             JUNCTION     0.007    0.030     0  02:20     0.00597      0.0265       0.029
  R0019942             JUNCTION     0.000    0.049     0  02:20           0      0.0444       0.068
  R0019206             JUNCTION     0.000    0.000     0  00:00           0           0       0.000 ltr
  R0019840             JUNCTION     0.000    0.163     0  02:20           0       0.156       0.029
  R0043702             JUNCTION     0.047    0.207     0  02:20      0.0433         0.2      -0.012
  R0019723             JUNCTION     0.018    0.023     0  02:20      0.0163      0.0205      -0.154
  R0019724             JUNCTION     0.005    0.005     0  02:20      0.0042      0.0042      -0.168
  R0021433             JUNCTION     0.027    0.027     0  02:20      0.0244      0.0244      -0.097
  R0021435             JUNCTION     0.017    0.044     0  02:20      0.0149      0.0394       0.004
  R0019769             OUTFALL      0.000    0.686     0  02:22           0       0.698       0.000
  
  
  **********************
  Node Surcharge Summary
  **********************
  
  Surcharging occurs when water rises above the top of the highest conduit.
  ---------------------------------------------------------------------
                                               Max. Height   Min. Depth
                                   Hours       Above Crown    Below Rim
  Node                 Type      Surcharged         Meters       Meters
  ---------------------------------------------------------------------
  R0021442             JUNCTION        0.06          0.049        1.701
  
  
  *********************
  Node Flooding Summary
  *********************
  
  No nodes were flooded.
  
  
  ***********************
  Outfall Loading Summary
  ***********************
  
  -----------------------------------------------------------
                         Flow       Avg       Max       Total
                         Freq      Flow      Flow      Volume
  Outfall Node           Pcnt       CMS       CMS    10^6 ltr
  -----------------------------------------------------------
  R0019769               4.89     0.052     0.686       0.698
  -----------------------------------------------------------
  System                 4.89     0.052     0.686       0.698
  
  
  ********************
  Link Flow Summary
  ********************
  
  -----------------------------------------------------------------------------
                                 Maximum  Time of Max   Maximum    Max/    Max/
                                  |Flow|   Occurrence   |Veloc|    Full    Full
  Link                 Type          CMS  days hr:min     m/sec    Flow   Depth
  -----------------------------------------------------------------------------
  H0014431             CONDUIT     0.056     0  02:20      0.85    1.04    0.90
  H0014433             CONDUIT     0.025     0  02:20      0.65    0.32    0.53
  H0014352             CONDUIT     0.687     0  02:21      2.45    0.28    0.45
  H0014373             CONDUIT     0.686     0  02:21      3.29    0.32    0.36
  H0017981             CONDUIT     0.047     0  02:20      0.98    1.33    0.64
  H0017755             CONDUIT     0.083     0  02:20      1.20    0.67    0.54
  H0017791             CONDUIT     0.061     0  02:20      0.54    0.09    0.23
  H0017357             CONDUIT     0.000     0  00:00      0.00    0.00    0.22
  H0018216             CONDUIT     0.047     0  02:20      0.87    0.86    0.72
  H0016792             CONDUIT     0.384     0  02:20      1.61    0.22    0.40
  H0019507             CONDUIT     0.021     0  02:20      0.61    0.30    0.58
  H0019998             CONDUIT     0.488     0  02:21      2.66    0.20    0.33
  H0019576             CONDUIT     0.406     0  02:21      1.93    0.27    0.37
  H0020087             CONDUIT     0.003     0  02:15      0.12    0.01    0.28
  H0020211             CONDUIT     0.387     0  02:21      1.54    0.97    0.42
  H0018982             CONDUIT     0.092     0  02:20      0.72    0.15    0.26
  H0018753             CONDUIT     0.027     0  02:20      0.57    0.38    0.66
  H0018845             CONDUIT     0.000     0  00:00      0.00    0.00    0.00
  H0018863             CONDUIT     0.026     0  02:18      0.54    0.60    0.89
  H0019156             CONDUIT     0.000     0  00:00      0.00    0.00    0.00
  H0018929             CONDUIT     0.188     0  02:21      1.02    0.16    0.33
  H0018440             CONDUIT     0.069     0  02:21      0.99    1.24    1.00
  H0018456             CONDUIT     0.079     0  02:20      1.21    0.48    0.52
  H0018968             CONDUIT     0.686     0  02:22      3.75    0.26    0.33
  H0022036             CONDUIT     0.019     0  02:20      0.50    0.02    0.13
  H0021806             CONDUIT     0.084     0  02:20      1.05    0.74    0.60
  H0022111             CONDUIT     0.045     0  02:20      0.68    0.33    0.38
  H0021440             CONDUIT     0.353     0  02:20      1.96    0.23    0.33
  H0021704             CONDUIT     0.212     0  02:21      1.14    0.40    0.33
  H0020521             CONDUIT     0.026     0  02:20      0.57    0.53    0.62
  H0020755             CONDUIT     0.029     0  02:20      0.53    0.32    0.45
  H0020530             CONDUIT     0.695     0  02:21      2.38    0.59    0.47
  H0020618             CONDUIT     0.474     0  02:21      2.53    0.29    0.34
  H0021163             CONDUIT     0.049     0  02:20      1.13    0.82    0.59
  H0020497             CONDUIT     0.000     0  00:00      0.00    0.00    0.54
  H0024325             CONDUIT     0.091     0  02:20      1.54    0.27    0.34
  H0023585             CONDUIT     0.207     0  02:20      2.19    0.48    0.49
  H0024098             CONDUIT     0.069     0  02:19      1.22    0.80    1.00
  H0024235             CONDUIT     0.093     0  02:20      1.20    0.38    0.42
  H0024282             CONDUIT     0.000     0  00:00      0.00    0.00    0.00
  H0024308             CONDUIT     0.686     0  02:22      4.19    0.20    0.30
  H0024498             CONDUIT     0.072     0  02:20      1.18    1.12    0.81
  H0026990             CONDUIT     0.023     0  02:20      0.62    0.17    0.34
  H0041650             CONDUIT     0.100     0  02:21      0.71    0.12    0.27
  H0041011             CONDUIT     0.048     0  02:20      1.01    0.48    0.73
  H0045103             CONDUIT     0.092     0  02:21      0.72    0.12    0.26
  H0045104             CONDUIT     0.685     0  02:21      3.51    0.24    0.35
  H0045105             CONDUIT     0.005     0  02:20      0.31    0.08    0.29
  H0045106             CONDUIT     0.163     0  02:20      2.20    0.22    0.40
  H0045107             CONDUIT     0.027     0  02:20      0.65    0.44    0.69
  H0045108             CONDUIT     0.042     0  02:21      0.65    0.76    1.00
  
  
  ***************************
  Flow Classification Summary
  ***************************
  
  -------------------------------------------------------------------------------------
                      Adjusted    ---------- Fraction of Time in Flow Class ---------- 
                       /Actual         Up    Down  Sub   Sup   Up    Down  Norm  Inlet 
  Conduit               Length    Dry  Dry   Dry   Crit  Crit  Crit  Crit  Ltd   Ctrl  
  -------------------------------------------------------------------------------------
  H0014431                1.00   0.03  0.00  0.00  0.97  0.00  0.00  0.00  0.97  0.00
  H0014433                1.00   0.03  0.00  0.00  0.97  0.00  0.00  0.00  0.97  0.00
  H0014352                1.00   0.03  0.00  0.00  0.94  0.03  0.00  0.00  0.97  0.00
  H0014373                1.00   0.03  0.00  0.00  0.93  0.04  0.00  0.00  0.91  0.00
  H0017981                1.00   0.03  0.00  0.00  0.00  0.00  0.00  0.97  0.00  0.00
  H0017755                1.00   0.03  0.00  0.00  0.00  0.00  0.00  0.97  0.00  0.00
  H0017791                1.00   0.03  0.00  0.00  0.97  0.00  0.00  0.00  0.97  0.00
  H0017357                1.00   0.03  0.97  0.00  0.00  0.00  0.00  0.00  0.00  0.00
  H0018216                1.00   0.03  0.92  0.00  0.05  0.00  0.00  0.00  0.97  0.00
  H0016792                1.00   0.03  0.91  0.00  0.06  0.00  0.00  0.00  0.97  0.00
  H0019507                1.00   0.03  0.00  0.00  0.97  0.00  0.00  0.00  0.97  0.00
  H0019998                1.00   0.03  0.00  0.00  0.93  0.04  0.00  0.00  0.06  0.00
  H0019576                1.00   0.03  0.00  0.00  0.95  0.02  0.00  0.00  0.06  0.00
  H0020087                1.00   0.03  0.96  0.00  0.01  0.00  0.00  0.00  0.97  0.00
  H0020211                1.00   0.03  0.00  0.00  0.97  0.00  0.00  0.00  0.91  0.00
  H0018982                1.00   0.03  0.00  0.00  0.97  0.00  0.00  0.00  0.94  0.00
  H0018753                1.00   0.03  0.00  0.00  0.97  0.00  0.00  0.00  0.97  0.00
  H0018845                1.00   1.00  0.00  0.00  0.00  0.00  0.00  0.00  0.00  0.00
  H0018863                1.00   0.03  0.00  0.00  0.97  0.00  0.00  0.00  0.97  0.00
  H0019156                1.00   1.00  0.00  0.00  0.00  0.00  0.00  0.00  0.00  0.00
  H0018929                1.00   0.03  0.92  0.00  0.05  0.00  0.00  0.00  0.97  0.00
  H0018440                1.00   0.03  0.00  0.00  0.97  0.00  0.00  0.00  0.97  0.00
  H0018456                1.00   0.03  0.00  0.00  0.97  0.00  0.00  0.00  0.97  0.00
  H0018968                1.00   0.03  0.91  0.00  0.02  0.05  0.00  0.00  0.93  0.00
  H0022036                1.00   0.03  0.00  0.00  0.01  0.00  0.00  0.96  0.01  0.00
  H0021806                1.00   0.03  0.92  0.00  0.05  0.00  0.00  0.00  0.96  0.00
  H0022111                1.00   0.03  0.00  0.00  0.97  0.00  0.00  0.00  0.00  0.00
  H0021440                1.00   0.03  0.00  0.00  0.94  0.03  0.00  0.00  0.02  0.00
  H0021704                1.00   0.03  0.00  0.00  0.00  0.00  0.00  0.97  0.00  0.00
  H0020521                1.00   0.03  0.00  0.00  0.97  0.00  0.00  0.00  0.97  0.00
  H0020755                1.00   0.03  0.93  0.00  0.04  0.00  0.00  0.00  0.97  0.00
  H0020530                1.00   0.03  0.00  0.00  0.95  0.02  0.00  0.00  0.01  0.00
  H0020618                1.00   0.03  0.00  0.00  0.94  0.03  0.00  0.00  0.92  0.00
  H0021163                1.00   0.03  0.00  0.00  0.97  0.00  0.00  0.00  0.93  0.00
  H0020497                1.20   0.03  0.97  0.00  0.00  0.00  0.00  0.00  0.00  0.00
  H0024325                1.00   0.03  0.00  0.00  0.94  0.03  0.00  0.00  0.93  0.00
  H0023585                1.00   0.03  0.00  0.00  0.00  0.00  0.00  0.97  0.00  0.00
  H0024098                1.00   0.03  0.92  0.00  0.05  0.00  0.00  0.00  0.97  0.00
  H0024235                1.00   0.03  0.00  0.00  0.00  0.00  0.00  0.97  0.00  0.00
  H0024282                1.00   1.00  0.00  0.00  0.00  0.00  0.00  0.00  0.00  0.00
  H0024308                1.00   0.03  0.00  0.00  0.91  0.06  0.00  0.00  0.02  0.00
  H0024498                1.00   0.03  0.00  0.00  0.00  0.00  0.00  0.97  0.00  0.00
  H0026990                1.00   0.03  0.00  0.00  0.97  0.00  0.00  0.00  0.97  0.00
  H0041650                1.00   0.95  0.01  0.00  0.04  0.00  0.00  0.00  0.97  0.00
  H0041011                1.00   0.03  0.00  0.00  0.97  0.00  0.00  0.00  0.97  0.00
  H0045103                1.00   0.03  0.00  0.00  0.97  0.00  0.00  0.00  0.94  0.00
  H0045104                1.00   0.03  0.00  0.00  0.92  0.05  0.00  0.00  0.06  0.00
  H0045105                1.00   0.03  0.00  0.00  0.97  0.00  0.00  0.00  0.97  0.00
  H0045106                1.00   0.03  0.00  0.00  0.94  0.03  0.00  0.00  0.97  0.00
  H0045107                1.00   0.03  0.00  0.00  0.97  0.00  0.00  0.00  0.97  0.00
  H0045108                1.00   0.03  0.00  0.00  0.97  0.00  0.00  0.00  0.97  0.00
  
  
  *************************
  Conduit Surcharge Summary
  *************************
  
  ----------------------------------------------------------------------------
                                                           Hours        Hours 
                         --------- Hours Full --------   Above Full   Capacity
  Conduit                Both Ends  Upstream  Dnstream   Normal Flow   Limited
  ----------------------------------------------------------------------------
  H0014431                    0.01      0.01      0.01      0.03         0.01
  H0017981                    0.01      0.01      0.01      0.10         0.01
  H0018440                    0.01      0.06      0.01      0.11         0.02
  H0024098                    0.01      0.01      0.09      0.01         0.01
  H0024498                    0.01      0.01      0.01      0.06         0.01
  H0045108                    0.01      0.01      0.06      0.01         0.01
  

  Analysis begun on:  Fri Mar 22 15:55:42 2024
  Analysis ended on:  Fri Mar 22 15:55:53 2024
  Total elapsed time: 00:00:11