
  EPA STORM WATER MANAGEMENT MODEL - VERSION 5.2 (Build 5.2.4)
  PYSWMM TOOLKIT API - VERSION v1.0 (2023-11-27)
  ------------------------------------------------------------

  Gievenbeck_e2_T20D15 
  
  ****************
  Analysis Options
  ****************
  Flow Units ............... CMS
  Process Models:
    Rainfall/Runoff ........ YES
    RDII ................... NO
    Snowmelt ............... NO
    Groundwater ............ NO
    Flow Routing ........... YES
    Ponding Allowed ........ NO
    Water Quality .......... NO
  Infiltration Method ...... HORTON
  Flow Routing Method ...... DYNWAVE
  Surcharge Method ......... SLOT
  Starting Date ............ 01/01/2024 00:00:00
  Ending Date .............. 01/04/2024 04:00:00
  Antecedent Dry Days ...... 14.0
  Report Time Step ......... 00:01:00
  Wet Time Step ............ 00:01:00
  Dry Time Step ............ 00:01:00
  Routing Time Step ........ 1.00 sec
  Variable Time Step ....... YES
  Maximum Trials ........... 8
  Number of Threads ........ 1
  Head Tolerance ........... 0.001500 m
  
  
  **************************        Volume         Depth
  Runoff Quantity Continuity     hectare-m            mm
  **************************     ---------       -------
  Total Precipitation ......         0.224        22.100
  Evaporation Loss .........         0.010         0.967
  Infiltration Loss ........         0.102        10.109
  Surface Runoff ...........         0.113        11.119
  Final Storage ............         0.000         0.000
  Continuity Error (%) .....        -0.432
  
  
  **************************        Volume        Volume
  Flow Routing Continuity        hectare-m      10^6 ltr
  **************************     ---------     ---------
  Dry Weather Inflow .......         0.000         0.000
  Wet Weather Inflow .......         0.113         1.126
  Groundwater Inflow .......         0.000         0.000
  RDII Inflow ..............         0.000         0.000
  External Inflow ..........         0.000         0.000
  External Outflow .........         0.112         1.123
  Flooding Loss ............         0.001         0.006
  Evaporation Loss .........         0.000         0.000
  Exfiltration Loss ........         0.000         0.000
  Initial Stored Volume ....         0.000         0.000
  Final Stored Volume ......         0.000         0.000
  Continuity Error (%) .....        -0.332
  
  
  *************************
  Highest Continuity Errors
  *************************
  Node R0019373 (2.54%)
  Node R0019718 (-2.20%)
  
  
  ***************************
  Time-Step Critical Elements
  ***************************
  None
  
  
  ********************************
  Highest Flow Instability Indexes
  ********************************
  All links are stable.
  
  
  *********************************
  Most Frequent Nonconverging Nodes
  *********************************
  Convergence obtained at all time steps.
  
  
  *************************
  Routing Time Step Summary
  *************************
  Minimum Time Step           :     0.58 sec
  Average Time Step           :     1.00 sec
  Maximum Time Step           :     1.00 sec
  % of Time in Steady State   :     0.00
  Average Iterations per Step :     2.00
  % of Steps Not Converging   :     0.00
  Time Step Frequencies       :
      1.000 -  0.871 sec      :   100.00 %
      0.871 -  0.758 sec      :     0.00 %
      0.758 -  0.660 sec      :     0.00 %
      0.660 -  0.574 sec      :     0.00 %
      0.574 -  0.500 sec      :     0.00 %
  
  
  ***************************
  Subcatchment Runoff Summary
  ***************************
  
  ------------------------------------------------------------------------------------------------------------------------------
                            Total      Total      Total      Total     Imperv       Perv      Total       Total     Peak  Runoff
                           Precip      Runon       Evap      Infil     Runoff     Runoff     Runoff      Runoff   Runoff   Coeff
  Subcatchment                 mm         mm         mm         mm         mm         mm         mm    10^6 ltr      CMS
  ------------------------------------------------------------------------------------------------------------------------------
  EZG_368                   22.10       0.00       0.96      10.21      10.18       2.37      11.02        0.05     0.10   0.499
  EZG_392                   22.10       0.00       0.96      10.07      10.19       2.51      11.17        0.04     0.08   0.506
  EZG_352                   22.10       0.00       0.97      10.42      10.16       2.16      10.80        0.06     0.13   0.489
  EZG_372                   22.10       0.00       0.94       9.59      10.22       3.01      11.70        0.02     0.04   0.529
  EZG_416                   22.10       0.00       0.96      10.01      10.19       2.58      11.24        0.03     0.07   0.508
  EZG_388                   22.10       0.00       0.96      10.27      10.17       2.31      10.96        0.05     0.11   0.496
  EZG_394                   22.10       0.00       0.95       9.98      10.19       2.60      11.27        0.03     0.07   0.510
  EZG_400                   22.10       0.00       0.95       9.94      10.20       2.65      11.31        0.03     0.06   0.512
  EZG_390                   22.10       0.00       0.96      10.06      10.19       2.53      11.19        0.04     0.08   0.506
  EZG_350                   22.10       0.00       0.96      10.27      10.17       2.31      10.96        0.05     0.11   0.496
  EZG_370                   22.10       0.00       0.96      10.13      10.18       2.45      11.11        0.04     0.09   0.503
  EZG_398                   22.10       0.00       0.94       9.43      10.24       3.18      11.88        0.01     0.03   0.537
  EZG_382                   22.10       0.00       0.94       9.37      10.24       3.23      11.94        0.01     0.03   0.540
  EZG_374                   22.10       0.00       1.16       8.18      12.20       2.49      12.86        0.05     0.10   0.582
  EZG_412                   22.10       0.00       0.93       9.01      10.28       3.61      12.35        0.00     0.01   0.559
  EZG_344                   22.10       0.00       0.95       9.93      10.20       2.66      11.32        0.03     0.06   0.512
  EZG_376                   22.10       0.00       0.95       9.80      10.21       2.79      11.47        0.02     0.05   0.519
  EZG_356                   22.10       0.00       0.97      10.46      10.16       2.11      10.75        0.07     0.14   0.486
  EZG_386                   22.10       0.00       0.97      10.59      10.15       1.99      10.61        0.08     0.17   0.480
  EZG_380                   22.10       0.00       0.96      10.18      10.18       2.41      11.06        0.04     0.09   0.500
  EZG_378                   22.10       0.00       0.96      10.10      10.18       2.48      11.14        0.04     0.08   0.504
  EZG_414                   22.10       0.00       0.94       9.36      10.24       3.24      11.95        0.01     0.03   0.541
  EZG_402                   22.10       0.00       0.96      10.07      10.19       2.51      11.17        0.04     0.08   0.505
  EZG_358                   22.10       0.00       0.97      10.45      10.16       2.12      10.76        0.07     0.14   0.487
  EZG_364                   22.10       0.00       0.97      10.45      10.16       2.12      10.75        0.07     0.14   0.487
  EZG_410                   22.10       0.00       0.95       9.83      10.20       2.76      11.44        0.02     0.05   0.518
  EZG_366                   22.10       0.00       0.95       9.90      10.20       2.69      11.36        0.03     0.06   0.514
  EZG_18259                 22.10       0.00       0.95       9.90      10.20       2.69      11.36        0.03     0.06   0.514
  EZG_18258                 22.10       0.00       0.94       9.20      10.26       3.42      12.14        0.01     0.02   0.549
  EZG_346                   22.10       0.00       0.94      10.33       9.98       2.44      10.92        0.04     0.09   0.494
  EZG_348                   22.10       0.00       0.93      10.05      10.00       2.73      11.23        0.02     0.06   0.508
  
  
  ******************
  Node Depth Summary
  ******************
  
  ---------------------------------------------------------------------------------
                                 Average  Maximum  Maximum  Time of Max    Reported
                                   Depth    Depth      HGL   Occurrence   Max Depth
  Node                 Type       Meters   Meters   Meters  days hr:min      Meters
  ---------------------------------------------------------------------------------
  R0019466             JUNCTION     0.00     1.09    70.54     0  02:10        1.07
  R0019468             JUNCTION     0.00     0.97    70.28     0  02:10        0.96
  R0019831             JUNCTION     0.00     1.50    70.67     0  02:10        1.43
  R0019825             JUNCTION     0.00     1.50    70.34     0  02:09        1.50
  R0019843             JUNCTION     0.00     0.64    68.27     0  02:11        0.63
  R0019368             JUNCTION     0.00     0.99    67.78     0  02:12        0.98
  R0019369             JUNCTION     0.00     0.64    67.23     0  02:12        0.62
  R0019370             JUNCTION     0.00     0.53    66.43     0  02:12        0.53
  R0019345             JUNCTION     0.00     0.71    70.61     0  02:10        0.64
  R0019346             JUNCTION     0.00     0.52    70.32     0  02:10        0.47
  R0043600             JUNCTION     0.00     0.51    70.18     0  02:10        0.50
  R0019203             JUNCTION     0.00     0.52    70.06     0  02:10        0.51
  R0043594             JUNCTION     0.00     0.36    70.09     0  02:11        0.36
  R0021458             JUNCTION     0.00     0.44    70.09     0  02:11        0.44
  R0019202             JUNCTION     0.00     0.49    70.07     0  02:10        0.49
  R0019373             JUNCTION     0.00     0.86    70.53     0  02:10        0.85
  R0019254             JUNCTION     0.00     1.37    71.41     0  02:10        1.28
  R0019716             JUNCTION     0.00     0.57    69.58     0  02:11        0.57
  R0019946             JUNCTION     0.00     0.81    69.43     0  02:11        0.79
  R0013935             JUNCTION     0.00     1.01    69.84     0  02:10        0.92
  R0019939             JUNCTION     0.00     1.11    69.68     0  02:10        1.07
  R0019944             JUNCTION     0.00     0.49    68.77     0  02:11        0.48
  R0043703             JUNCTION     0.00     0.61    69.21     0  02:11        0.60
  R0019945             JUNCTION     0.00     0.62    69.02     0  02:11        0.62
  R0039621             JUNCTION     0.00     0.25    69.82     0  02:10        0.24
  R0019838             JUNCTION     0.00     0.35    69.81     0  02:10        0.34
  R0039606             JUNCTION     0.00     0.48    70.07     0  02:10        0.47
  R0019204             JUNCTION     0.00     0.00    69.91     0  00:00        0.00
  R0019205             JUNCTION     0.00     0.00    69.62     0  00:00        0.00
  R0019849             JUNCTION     0.00     1.00    69.52     0  02:10        1.00
  R0019371             JUNCTION     0.00     0.00    70.41     0  00:00        0.00
  R0019718             JUNCTION     0.00     0.60    70.02     0  02:10        0.60
  R0021442             JUNCTION     0.00     2.05    72.10     0  02:09        2.05
  R0019247             JUNCTION     0.00     1.00    70.88     0  02:10        1.00
  R0019719             JUNCTION     0.00     0.43    70.11     0  02:10        0.42
  R0019767             JUNCTION     0.00     0.56    65.29     0  02:12        0.56
  R0019768             JUNCTION     0.00     0.47    64.24     0  02:12        0.47
  R0021453             JUNCTION     0.00     0.15    70.10     0  02:12        0.13
  R0019839             JUNCTION     0.00     0.32    69.71     0  02:10        0.32
  R0019717             JUNCTION     0.00     0.54    69.88     0  02:10        0.54
  R0019252             JUNCTION     0.00     1.53    71.72     0  02:10        1.44
  R0019721             JUNCTION     0.00     0.50    70.37     0  02:10        0.43
  R0019942             JUNCTION     0.00     1.03    69.68     0  02:11        1.03
  R0019206             JUNCTION     0.00     0.00    69.07     0  00:00        0.00
  R0019840             JUNCTION     0.00     0.33    69.30     0  02:10        0.31
  R0043702             JUNCTION     0.00     0.63    69.33     0  02:10        0.62
  R0019723             JUNCTION     0.00     0.28    70.36     0  02:10        0.27
  R0019724             JUNCTION     0.00     0.23    70.39     0  02:11        0.20
  R0021433             JUNCTION     0.00     2.15    72.54     0  02:09        2.15
  R0021435             JUNCTION     0.00     2.11    72.29     0  02:09        2.11
  R0019769             OUTFALL      0.00     0.47    63.85     0  02:12        0.47
  
  
  *******************
  Node Inflow Summary
  *******************
  
  -------------------------------------------------------------------------------------------------
                                  Maximum  Maximum                  Lateral       Total        Flow
                                  Lateral    Total  Time of Max      Inflow      Inflow     Balance
                                   Inflow   Inflow   Occurrence      Volume      Volume       Error
  Node                 Type           CMS      CMS  days hr:min    10^6 ltr    10^6 ltr     Percent
  -------------------------------------------------------------------------------------------------
  R0019466             JUNCTION     0.097    0.104     0  02:08      0.0455       0.066       0.257
  R0019468             JUNCTION     0.061    0.139     0  02:09      0.0272      0.0912      -0.171
  R0019831             JUNCTION     0.079    0.079     0  02:10      0.0362      0.0362       0.166
  R0019825             JUNCTION     0.079    0.151     0  02:10      0.0363      0.0724       0.299
  R0019843             JUNCTION     0.000    1.843     0  02:11           0        1.12      -0.013
  R0019368             JUNCTION     0.000    1.856     0  02:12           0        1.12       0.041
  R0019369             JUNCTION     0.000    1.858     0  02:12           0        1.12      -0.045
  R0019370             JUNCTION     0.000    1.848     0  02:12           0        1.12       0.003
  R0019345             JUNCTION     0.000    0.138     0  02:10           0      0.0709      -0.010
  R0019346             JUNCTION     0.013    0.221     0  02:10     0.00493       0.121       0.047
  R0043600             JUNCTION     0.000    0.210     0  02:10           0       0.131      -0.124
  R0019203             JUNCTION     0.026    0.527     0  02:10      0.0106       0.322       0.003
  R0043594             JUNCTION     0.130    0.192     0  02:10      0.0638      0.0924      -0.257
  R0021458             JUNCTION     0.106    0.265     0  02:10      0.0503       0.143      -0.013
  R0019202             JUNCTION     0.037    0.319     0  02:10      0.0158       0.179      -0.607
  R0019373             JUNCTION     0.086    0.104     0  02:10      0.0398      0.0417       2.603
  R0019254             JUNCTION     0.072    0.144     0  02:10      0.0327      0.0709       0.081
  R0019716             JUNCTION     0.105    1.085     0  02:11        0.05       0.648      -0.050
  R0019946             JUNCTION     0.000    1.093     0  02:11           0       0.648       0.047
  R0013935             JUNCTION     0.069    0.069     0  02:10      0.0313      0.0313       0.149
  R0019939             JUNCTION     0.028    0.088     0  02:10      0.0118       0.043      -0.146
  R0019944             JUNCTION     0.065    1.372     0  02:11      0.0291       0.827       0.009
  R0043703             JUNCTION     0.077    1.155     0  02:11      0.0354       0.683      -0.003
  R0019945             JUNCTION     0.000    1.337     0  02:11           0       0.797      -0.005
  R0039621             JUNCTION     0.000    0.016     0  02:08           0      0.0016       1.787
  R0019838             JUNCTION     0.139    0.139     0  02:10      0.0689      0.0704      -0.045
  R0039606             JUNCTION     0.000    0.209     0  02:11           0       0.143       0.179
  R0019204             JUNCTION     0.000    0.000     0  00:00           0           0       0.000 ltr
  R0019205             JUNCTION     0.000    0.000     0  00:00           0           0       0.000 ltr
  R0019849             JUNCTION     0.000    0.201     0  02:10           0       0.114       0.058
  R0019371             JUNCTION     0.000    0.000     0  00:00           0           0       0.000 ltr
  R0019718             JUNCTION     0.092    0.600     0  02:10       0.043       0.365      -2.149
  R0021442             JUNCTION     0.102    0.178     0  02:09      0.0488       0.109       0.112
  R0019247             JUNCTION     0.052    0.211     0  02:09      0.0229       0.131       0.046
  R0019719             JUNCTION     0.054    0.266     0  02:10       0.024       0.145       0.969
  R0019767             JUNCTION     0.000    1.850     0  02:12           0        1.12      -0.009
  R0019768             JUNCTION     0.000    1.848     0  02:12           0        1.12       0.029
  R0021453             JUNCTION     0.064    0.064     0  02:10      0.0286      0.0286      -0.013
  R0019839             JUNCTION     0.138    0.253     0  02:10      0.0681       0.137      -0.037
  R0019717             JUNCTION     0.166    0.993     0  02:10      0.0847       0.601       0.494
  R0019252             JUNCTION     0.083    0.083     0  02:10      0.0382      0.0382      -0.057
  R0019721             JUNCTION     0.025    0.098     0  02:10      0.0104      0.0449       0.045
  R0019942             JUNCTION     0.000    0.125     0  02:09           0       0.071      -0.454
  R0019206             JUNCTION     0.000    0.000     0  00:00           0           0       0.000 ltr
  R0019840             JUNCTION     0.000    0.383     0  02:10           0       0.228       0.035
  R0043702             JUNCTION     0.138    0.498     0  02:10      0.0682       0.296       0.005
  R0019723             JUNCTION     0.060    0.078     0  02:10       0.027      0.0344      -0.272
  R0019724             JUNCTION     0.019    0.019     0  02:10     0.00743     0.00743      -0.237
  R0021433             JUNCTION     0.086    0.086     0  02:10      0.0397      0.0397      -0.065
  R0021435             JUNCTION     0.056    0.126     0  02:10       0.025      0.0641      -0.217
  R0019769             OUTFALL      0.000    1.848     0  02:12           0        1.12       0.000
  
  
  **********************
  Node Surcharge Summary
  **********************
  
  Surcharging occurs when water rises above the top of the highest conduit.
  ---------------------------------------------------------------------
                                               Max. Height   Min. Depth
                                   Hours       Above Crown    Below Rim
  Node                 Type      Surcharged         Meters       Meters
  ---------------------------------------------------------------------
  R0019466             JUNCTION        0.19          0.786        1.724
  R0019468             JUNCTION        0.18          0.670        1.760
  R0019831             JUNCTION        0.10          1.203        0.157
  R0019825             JUNCTION        0.15          1.200        0.000
  R0019368             JUNCTION        0.02          0.092        0.958
  R0019345             JUNCTION        0.09          0.409        1.341
  R0019346             JUNCTION        0.04          0.116        1.624
  R0043600             JUNCTION        0.06          0.111        2.469
  R0019373             JUNCTION        0.10          0.561        1.939
  R0019254             JUNCTION        0.13          1.074        0.756
  R0013935             JUNCTION        0.11          0.715        0.605
  R0019939             JUNCTION        0.19          0.809        0.811
  R0019849             JUNCTION        0.20          0.703        1.227
  R0021442             JUNCTION        0.22          1.750        0.000
  R0019247             JUNCTION        0.11          0.597        1.263
  R0019252             JUNCTION        0.10          1.230        0.410
  R0019721             JUNCTION        0.03          0.104        1.456
  R0019942             JUNCTION        0.16          0.735        0.915
  R0043702             JUNCTION        0.02          0.127        2.783
  R0021433             JUNCTION        0.15          1.850        0.000
  R0021435             JUNCTION        0.19          1.810        0.000
  
  
  *********************
  Node Flooding Summary
  *********************
  
  Flooding refers to all water that overflows a node, whether it ponds or not.
  --------------------------------------------------------------------------
                                                             Total   Maximum
                                 Maximum   Time of Max       Flood    Ponded
                        Hours       Rate    Occurrence      Volume     Depth
  Node                 Flooded       CMS   days hr:min    10^6 ltr    Meters
  --------------------------------------------------------------------------
  R0019825                0.02     0.030      0  02:10       0.001     0.000
  R0021442                0.01     0.018      0  02:09       0.001     0.000
  R0021433                0.02     0.023      0  02:09       0.001     0.000
  R0021435                0.03     0.053      0  02:10       0.004     0.000
  
  
  ***********************
  Outfall Loading Summary
  ***********************
  
  -----------------------------------------------------------
                         Flow       Avg       Max       Total
                         Freq      Flow      Flow      Volume
  Outfall Node           Pcnt       CMS       CMS    10^6 ltr
  -----------------------------------------------------------
  R0019769               3.89     0.106     1.848       1.123
  -----------------------------------------------------------
  System                 3.89     0.106     1.848       1.123
  
  
  ********************
  Link Flow Summary
  ********************
  
  -----------------------------------------------------------------------------
                                 Maximum  Time of Max   Maximum    Max/    Max/
                                  |Flow|   Occurrence   |Veloc|    Full    Full
  Link                 Type          CMS  days hr:min     m/sec    Flow   Depth
  -----------------------------------------------------------------------------
  H0014431             CONDUIT     0.086     0  02:08      1.21    1.59    1.00
  H0014433             CONDUIT     0.079     0  02:10      1.11    1.00    1.00
  H0014352             CONDUIT     1.856     0  02:12      3.20    0.76    0.90
  H0014373             CONDUIT     1.848     0  02:12      4.22    0.85    0.65
  H0017981             CONDUIT     0.137     0  02:10      1.94    3.87    1.00
  H0017755             CONDUIT     0.210     0  02:10      1.67    1.70    1.00
  H0017791             CONDUIT     0.165     0  02:10      0.71    0.24    0.44
  H0017357             CONDUIT     0.102     0  02:10      1.44    1.62    1.00
  H0018216             CONDUIT     0.138     0  02:10      1.95    2.51    1.00
  H0016792             CONDUIT     1.093     0  02:11      2.11    0.63    0.76
  H0019507             CONDUIT     0.061     0  02:10      0.86    0.85    1.00
  H0019998             CONDUIT     1.379     0  02:11      3.41    0.55    0.62
  H0019576             CONDUIT     1.162     0  02:11      2.50    0.78    0.69
  H0020087             CONDUIT     0.016     0  02:08      0.30    0.07    0.60
  H0020211             CONDUIT     1.106     0  02:11      2.08    2.76    0.79
  H0018982             CONDUIT     0.209     0  02:11      0.91    0.34    0.51
  H0018753             CONDUIT     0.042     0  02:08      0.68    0.60    1.00
  H0018845             CONDUIT     0.000     0  00:00      0.00    0.00    0.00
  H0018863             CONDUIT     0.084     0  02:10      1.19    1.97    1.00
  H0019156             CONDUIT     0.000     0  00:00      0.00    0.00    0.00
  H0018929             CONDUIT     0.530     0  02:10      1.34    0.46    0.62
  H0018440             CONDUIT     0.161     0  02:09      2.28    2.88    1.00
  H0018456             CONDUIT     0.221     0  02:10      1.76    1.34    1.00
  H0018968             CONDUIT     1.848     0  02:12      4.89    0.71    0.57
  H0022036             CONDUIT     0.062     0  02:10      0.65    0.05    0.26
  H0021806             CONDUIT     0.210     0  02:10      1.67    1.86    1.00
  H0022111             CONDUIT     0.124     0  02:10      0.90    0.89    0.67
  H0021440             CONDUIT     1.009     0  02:11      2.48    0.65    0.62
  H0021704             CONDUIT     0.605     0  02:11      1.56    1.15    0.61
  H0020521             CONDUIT     0.074     0  02:10      1.05    1.51    1.00
  H0020755             CONDUIT     0.083     0  02:12      0.71    0.91    1.00
  H0020530             CONDUIT     1.858     0  02:12      3.20    1.59    0.90
  H0020618             CONDUIT     1.334     0  02:11      3.23    0.83    0.62
  H0021163             CONDUIT     0.125     0  02:09      1.77    2.10    1.00
  H0020497             CONDUIT     0.000     0  00:00      0.00    0.00    1.00
  H0024325             CONDUIT     0.250     0  02:10      1.87    0.74    0.65
  H0023585             CONDUIT     0.475     0  02:11      2.57    1.09    1.00
  H0024098             CONDUIT     0.198     0  02:10      2.81    2.32    1.00
  H0024235             CONDUIT     0.261     0  02:10      1.50    1.07    0.84
  H0024282             CONDUIT     0.000     0  00:00      0.00    0.00    0.00
  H0024308             CONDUIT     1.848     0  02:12      5.47    0.54    0.52
  H0024498             CONDUIT     0.136     0  02:10      1.92    2.11    1.00
  H0026990             CONDUIT     0.074     0  02:10      0.87    0.56    0.92
  H0041650             CONDUIT     0.314     0  02:11      0.90    0.37    0.56
  H0041011             CONDUIT     0.119     0  02:10      1.69    1.18    1.00
  H0045103             CONDUIT     0.229     0  02:11      0.79    0.29    0.53
  H0045104             CONDUIT     1.850     0  02:12      4.57    0.66    0.61
  H0045105             CONDUIT     0.021     0  02:11      0.43    0.36    0.83
  H0045106             CONDUIT     0.386     0  02:10      2.37    0.52    0.94
  H0045107             CONDUIT     0.071     0  02:10      1.01    1.17    1.00
  H0045108             CONDUIT     0.091     0  02:12      1.28    1.63    1.00
  
  
  ***************************
  Flow Classification Summary
  ***************************
  
  -------------------------------------------------------------------------------------
                      Adjusted    ---------- Fraction of Time in Flow Class ---------- 
                       /Actual         Up    Down  Sub   Sup   Up    Down  Norm  Inlet 
  Conduit               Length    Dry  Dry   Dry   Crit  Crit  Crit  Crit  Ltd   Ctrl  
  -------------------------------------------------------------------------------------
  H0014431                1.00   0.03  0.00  0.00  0.97  0.00  0.00  0.00  0.97  0.00
  H0014433                1.00   0.03  0.00  0.00  0.97  0.00  0.00  0.00  0.97  0.00
  H0014352                1.00   0.03  0.00  0.00  0.96  0.02  0.00  0.00  0.97  0.00
  H0014373                1.00   0.03  0.00  0.00  0.94  0.03  0.00  0.00  0.93  0.00
  H0017981                1.00   0.03  0.00  0.00  0.00  0.00  0.00  0.97  0.00  0.00
  H0017755                1.00   0.03  0.00  0.00  0.00  0.00  0.00  0.97  0.00  0.00
  H0017791                1.00   0.03  0.00  0.00  0.97  0.00  0.00  0.00  0.97  0.00
  H0017357                1.00   0.03  0.97  0.00  0.00  0.00  0.00  0.00  0.97  0.00
  H0018216                1.00   0.03  0.93  0.00  0.04  0.00  0.00  0.00  0.97  0.00
  H0016792                1.00   0.03  0.93  0.00  0.04  0.00  0.00  0.00  0.97  0.00
  H0019507                1.00   0.03  0.00  0.00  0.97  0.00  0.00  0.00  0.97  0.00
  H0019998                1.00   0.03  0.00  0.00  0.94  0.03  0.00  0.00  0.05  0.00
  H0019576                1.00   0.03  0.00  0.00  0.96  0.01  0.00  0.00  0.05  0.00
  H0020087                1.00   0.03  0.96  0.00  0.01  0.00  0.00  0.00  0.97  0.00
  H0020211                1.00   0.03  0.00  0.00  0.97  0.00  0.00  0.00  0.92  0.00
  H0018982                1.00   0.03  0.00  0.00  0.97  0.00  0.00  0.00  0.95  0.00
  H0018753                1.00   0.03  0.00  0.00  0.97  0.00  0.00  0.00  0.97  0.00
  H0018845                1.00   1.00  0.00  0.00  0.00  0.00  0.00  0.00  0.00  0.00
  H0018863                1.00   0.03  0.00  0.00  0.97  0.00  0.00  0.00  0.97  0.00
  H0019156                1.00   1.00  0.00  0.00  0.00  0.00  0.00  0.00  0.00  0.00
  H0018929                1.00   0.03  0.93  0.00  0.04  0.00  0.00  0.00  0.97  0.00
  H0018440                1.00   0.03  0.00  0.00  0.97  0.00  0.00  0.00  0.97  0.00
  H0018456                1.00   0.03  0.00  0.00  0.97  0.00  0.00  0.00  0.97  0.00
  H0018968                1.00   0.03  0.00  0.00  0.94  0.04  0.00  0.00  0.94  0.00
  H0022036                1.00   0.03  0.00  0.00  0.01  0.00  0.00  0.97  0.01  0.00
  H0021806                1.00   0.03  0.93  0.00  0.04  0.00  0.00  0.00  0.97  0.00
  H0022111                1.00   0.03  0.00  0.00  0.97  0.00  0.00  0.00  0.00  0.00
  H0021440                1.00   0.03  0.00  0.00  0.96  0.02  0.00  0.00  0.02  0.00
  H0021704                1.00   0.03  0.00  0.00  0.00  0.00  0.00  0.97  0.00  0.00
  H0020521                1.00   0.03  0.00  0.00  0.97  0.00  0.00  0.00  0.97  0.00
  H0020755                1.00   0.03  0.94  0.00  0.03  0.00  0.00  0.00  0.97  0.00
  H0020530                1.00   0.03  0.00  0.00  0.96  0.01  0.00  0.00  0.00  0.00
  H0020618                1.00   0.03  0.00  0.00  0.95  0.02  0.00  0.00  0.93  0.00
  H0021163                1.00   0.03  0.00  0.00  0.97  0.00  0.00  0.00  0.95  0.00
  H0020497                1.20   0.03  0.97  0.00  0.00  0.00  0.00  0.00  0.00  0.00
  H0024325                1.00   0.03  0.00  0.00  0.96  0.02  0.00  0.00  0.95  0.00
  H0023585                1.00   0.03  0.00  0.00  0.00  0.00  0.00  0.97  0.00  0.00
  H0024098                1.00   0.03  0.94  0.00  0.04  0.00  0.00  0.00  0.97  0.00
  H0024235                1.00   0.03  0.00  0.00  0.00  0.00  0.00  0.97  0.00  0.00
  H0024282                1.00   1.00  0.00  0.00  0.00  0.00  0.00  0.00  0.00  0.00
  H0024308                1.00   0.03  0.00  0.00  0.92  0.05  0.00  0.00  0.01  0.00
  H0024498                1.00   0.03  0.00  0.00  0.00  0.00  0.00  0.97  0.00  0.00
  H0026990                1.00   0.03  0.00  0.00  0.97  0.00  0.00  0.00  0.97  0.00
  H0041650                1.00   0.96  0.01  0.00  0.03  0.00  0.00  0.00  0.97  0.00
  H0041011                1.00   0.03  0.00  0.00  0.97  0.00  0.00  0.00  0.97  0.00
  H0045103                1.00   0.03  0.00  0.00  0.97  0.00  0.00  0.00  0.95  0.00
  H0045104                1.00   0.03  0.00  0.00  0.93  0.04  0.00  0.00  0.05  0.00
  H0045105                1.00   0.03  0.00  0.00  0.97  0.00  0.00  0.00  0.97  0.00
  H0045106                1.00   0.03  0.93  0.00  0.02  0.02  0.00  0.00  0.97  0.00
  H0045107                1.00   0.03  0.00  0.00  0.97  0.00  0.00  0.00  0.97  0.00
  H0045108                1.00   0.03  0.00  0.00  0.97  0.00  0.00  0.00  0.97  0.00
  
  
  *************************
  Conduit Surcharge Summary
  *************************
  
  ----------------------------------------------------------------------------
                                                           Hours        Hours 
                         --------- Hours Full --------   Above Full   Capacity
  Conduit                Both Ends  Upstream  Dnstream   Normal Flow   Limited
  ----------------------------------------------------------------------------
  H0014431                    0.18      0.19      0.18      0.20         0.18
  H0014433                    0.10      0.10      0.15      0.01         0.01
  H0014352                    0.01      0.01      0.02      0.01         0.01
  H0017981                    0.05      0.09      0.05      0.22         0.07
  H0017755                    0.03      0.06      0.03      0.13         0.05
  H0017357                    0.01      0.01      0.10      0.04         0.01
  H0018216                    0.09      0.13      0.09      0.16         0.12
  H0019507                    0.11      0.11      0.19      0.01         0.01
  H0020211                    0.01      0.01      0.01      0.19         0.01
  H0018753                    0.10      0.10      0.19      0.01         0.01
  H0018863                    0.19      0.19      0.20      0.11         0.09
  H0018440                    0.15      0.22      0.15      0.24         0.20
  H0018456                    0.02      0.04      0.02      0.07         0.04
  H0021806                    0.06      0.11      0.06      0.14         0.09
  H0021704                    0.01      0.01      0.01      0.05         0.01
  H0020521                    0.10      0.10      0.13      0.06         0.06
  H0020755                    0.03      0.03      0.04      0.01         0.01
  H0020530                    0.01      0.02      0.01      0.10         0.01
  H0021163                    0.14      0.15      0.16      0.15         0.14
  H0023585                    0.01      0.02      0.01      0.04         0.01
  H0024098                    0.19      0.20      0.22      0.18         0.15
  H0024235                    0.01      0.01      0.01      0.02         0.01
  H0024498                    0.01      0.18      0.01      0.22         0.14
  H0026990                    0.01      0.01      0.03      0.01         0.01
  H0041011                    0.16      0.16      0.20      0.05         0.05
  H0045106                    0.01      0.01      0.02      0.01         0.01
  H0045107                    0.15      0.15      0.19      0.02         0.02
  H0045108                    0.19      0.19      0.22      0.13         0.13
  

  Analysis begun on:  Fri Mar 22 15:56:24 2024
  Analysis ended on:  Fri Mar 22 15:56:35 2024
  Total elapsed time: 00:00:11