
  EPA STORM WATER MANAGEMENT MODEL - VERSION 5.2 (Build 5.2.4)
  PYSWMM TOOLKIT API - VERSION v1.0 (2023-11-27)
  ------------------------------------------------------------

  Gievenbeck_e2_T5D30 
  
  ****************
  Analysis Options
  ****************
  Flow Units ............... CMS
  Process Models:
    Rainfall/Runoff ........ YES
    RDII ................... NO
    Snowmelt ............... NO
    Groundwater ............ NO
    Flow Routing ........... YES
    Ponding Allowed ........ NO
    Water Quality .......... NO
  Infiltration Method ...... HORTON
  Flow Routing Method ...... DYNWAVE
  Surcharge Method ......... SLOT
  Starting Date ............ 01/01/2024 00:00:00
  Ending Date .............. 01/04/2024 04:00:00
  Antecedent Dry Days ...... 14.0
  Report Time Step ......... 00:01:00
  Wet Time Step ............ 00:01:00
  Dry Time Step ............ 00:01:00
  Routing Time Step ........ 1.00 sec
  Variable Time Step ....... YES
  Maximum Trials ........... 8
  Number of Threads ........ 1
  Head Tolerance ........... 0.001500 m
  
  
  **************************        Volume         Depth
  Runoff Quantity Continuity     hectare-m            mm
  **************************     ---------       -------
  Total Precipitation ......         0.199        19.700
  Evaporation Loss .........         0.010         0.960
  Infiltration Loss ........         0.107        10.585
  Surface Runoff ...........         0.083         8.200
  Final Storage ............         0.000         0.000
  Continuity Error (%) .....        -0.226
  
  
  **************************        Volume        Volume
  Flow Routing Continuity        hectare-m      10^6 ltr
  **************************     ---------     ---------
  Dry Weather Inflow .......         0.000         0.000
  Wet Weather Inflow .......         0.083         0.830
  Groundwater Inflow .......         0.000         0.000
  RDII Inflow ..............         0.000         0.000
  External Inflow ..........         0.000         0.000
  External Outflow .........         0.083         0.832
  Flooding Loss ............         0.000         0.000
  Evaporation Loss .........         0.000         0.000
  Exfiltration Loss ........         0.000         0.000
  Initial Stored Volume ....         0.000         0.000
  Final Stored Volume ......         0.000         0.000
  Continuity Error (%) .....        -0.267
  
  
  *************************
  Highest Continuity Errors
  *************************
  Node R0019718 (-2.87%)
  Node R0019373 (2.66%)
  Node R0019717 (1.01%)
  
  
  ***************************
  Time-Step Critical Elements
  ***************************
  None
  
  
  ********************************
  Highest Flow Instability Indexes
  ********************************
  All links are stable.
  
  
  *********************************
  Most Frequent Nonconverging Nodes
  *********************************
  Convergence obtained at all time steps.
  
  
  *************************
  Routing Time Step Summary
  *************************
  Minimum Time Step           :     0.00 sec
  Average Time Step           :     1.00 sec
  Maximum Time Step           :     1.00 sec
  % of Time in Steady State   :     0.00
  Average Iterations per Step :     2.00
  % of Steps Not Converging   :     0.00
  Time Step Frequencies       :
      1.000 -  0.871 sec      :   100.00 %
      0.871 -  0.758 sec      :     0.00 %
      0.758 -  0.660 sec      :     0.00 %
      0.660 -  0.574 sec      :     0.00 %
      0.574 -  0.500 sec      :     0.00 %
  
  
  ***************************
  Subcatchment Runoff Summary
  ***************************
  
  ------------------------------------------------------------------------------------------------------------------------------
                            Total      Total      Total      Total     Imperv       Perv      Total       Total     Peak  Runoff
                           Precip      Runon       Evap      Infil     Runoff     Runoff     Runoff      Runoff   Runoff   Coeff
  Subcatchment                 mm         mm         mm         mm         mm         mm         mm    10^6 ltr      CMS
  ------------------------------------------------------------------------------------------------------------------------------
  EZG_368                   19.70       0.00       0.95      10.66       8.94       0.53       8.13        0.03     0.07   0.412
  EZG_392                   19.70       0.00       0.95      10.61       8.94       0.58       8.18        0.03     0.05   0.415
  EZG_352                   19.70       0.00       0.96      10.74       8.93       0.46       8.04        0.05     0.09   0.408
  EZG_372                   19.70       0.00       0.94      10.41       8.96       0.79       8.41        0.01     0.02   0.427
  EZG_416                   19.70       0.00       0.95      10.59       8.94       0.61       8.21        0.02     0.05   0.417
  EZG_388                   19.70       0.00       0.96      10.68       8.93       0.51       8.10        0.04     0.07   0.411
  EZG_394                   19.70       0.00       0.95      10.58       8.94       0.62       8.22        0.02     0.05   0.417
  EZG_400                   19.70       0.00       0.95      10.56       8.95       0.64       8.24        0.02     0.04   0.418
  EZG_390                   19.70       0.00       0.95      10.61       8.94       0.59       8.19        0.03     0.05   0.416
  EZG_350                   19.70       0.00       0.96      10.69       8.93       0.51       8.10        0.04     0.07   0.411
  EZG_370                   19.70       0.00       0.95      10.63       8.94       0.56       8.16        0.03     0.06   0.414
  EZG_398                   19.70       0.00       0.94      10.33       8.97       0.87       8.50        0.01     0.02   0.431
  EZG_382                   19.70       0.00       0.93      10.30       8.97       0.90       8.53        0.01     0.02   0.433
  EZG_374                   19.70       0.00       1.15       8.80      10.71       0.69       9.80        0.04     0.07   0.497
  EZG_412                   19.70       0.00       0.93      10.10       8.98       1.11       8.75        0.00     0.01   0.444
  EZG_344                   19.70       0.00       0.95      10.56       8.95       0.64       8.25        0.02     0.04   0.419
  EZG_376                   19.70       0.00       0.94      10.50       8.95       0.70       8.31        0.02     0.03   0.422
  EZG_356                   19.70       0.00       0.96      10.75       8.92       0.44       8.03        0.05     0.10   0.407
  EZG_386                   19.70       0.00       0.97      10.79       8.92       0.40       7.98        0.06     0.12   0.405
  EZG_380                   19.70       0.00       0.95      10.65       8.94       0.54       8.14        0.03     0.06   0.413
  EZG_378                   19.70       0.00       0.95      10.62       8.94       0.57       8.17        0.03     0.06   0.415
  EZG_414                   19.70       0.00       0.93      10.30       8.97       0.91       8.53        0.01     0.02   0.433
  EZG_402                   19.70       0.00       0.95      10.61       8.94       0.58       8.18        0.03     0.05   0.415
  EZG_358                   19.70       0.00       0.96      10.75       8.92       0.44       8.03        0.05     0.10   0.408
  EZG_364                   19.70       0.00       0.96      10.75       8.92       0.44       8.03        0.05     0.10   0.408
  EZG_410                   19.70       0.00       0.94      10.51       8.95       0.69       8.29        0.02     0.04   0.421
  EZG_366                   19.70       0.00       0.95      10.54       8.95       0.65       8.26        0.02     0.04   0.419
  EZG_18259                 19.70       0.00       0.95      10.54       8.95       0.66       8.26        0.02     0.04   0.419
  EZG_18258                 19.70       0.00       0.93      10.21       8.97       1.00       8.63        0.01     0.01   0.438
  EZG_346                   19.70       0.00       0.93      10.82       8.76       0.55       7.99        0.03     0.06   0.406
  EZG_348                   19.70       0.00       0.93      10.71       8.77       0.66       8.11        0.02     0.04   0.412
  
  
  ******************
  Node Depth Summary
  ******************
  
  ---------------------------------------------------------------------------------
                                 Average  Maximum  Maximum  Time of Max    Reported
                                   Depth    Depth      HGL   Occurrence   Max Depth
  Node                 Type       Meters   Meters   Meters  days hr:min      Meters
  ---------------------------------------------------------------------------------
  R0019466             JUNCTION     0.00     0.72    70.17     0  02:15        0.72
  R0019468             JUNCTION     0.00     0.64    69.95     0  02:15        0.63
  R0019831             JUNCTION     0.00     0.65    69.82     0  02:15        0.55
  R0019825             JUNCTION     0.00     0.87    69.71     0  02:15        0.79
  R0019843             JUNCTION     0.00     0.47    68.10     0  02:16        0.47
  R0019368             JUNCTION     0.00     0.70    67.49     0  02:16        0.69
  R0019369             JUNCTION     0.00     0.51    67.10     0  02:16        0.50
  R0019370             JUNCTION     0.00     0.43    66.33     0  02:17        0.43
  R0019345             JUNCTION     0.00     0.41    70.31     0  02:15        0.40
  R0019346             JUNCTION     0.00     0.32    70.12     0  02:15        0.32
  R0043600             JUNCTION     0.00     0.39    70.06     0  02:15        0.38
  R0019203             JUNCTION     0.00     0.42    69.96     0  02:15        0.41
  R0043594             JUNCTION     0.00     0.28    70.01     0  02:15        0.27
  R0021458             JUNCTION     0.00     0.34    69.99     0  02:16        0.34
  R0019202             JUNCTION     0.00     0.39    69.97     0  02:15        0.38
  R0019373             JUNCTION     0.00     0.49    70.16     0  02:15        0.49
  R0019254             JUNCTION     0.00     0.73    70.77     0  02:15        0.71
  R0019716             JUNCTION     0.00     0.45    69.46     0  02:16        0.45
  R0019946             JUNCTION     0.00     0.63    69.25     0  02:16        0.63
  R0013935             JUNCTION     0.00     0.48    69.31     0  02:15        0.44
  R0019939             JUNCTION     0.00     0.68    69.25     0  02:15        0.64
  R0019944             JUNCTION     0.00     0.39    68.67     0  02:16        0.39
  R0043703             JUNCTION     0.00     0.49    69.09     0  02:16        0.48
  R0019945             JUNCTION     0.00     0.49    68.89     0  02:16        0.49
  R0039621             JUNCTION     0.00     0.18    69.75     0  02:15        0.17
  R0019838             JUNCTION     0.00     0.29    69.75     0  02:15        0.28
  R0039606             JUNCTION     0.00     0.38    69.97     0  02:15        0.38
  R0019204             JUNCTION     0.00     0.00    69.91     0  00:00        0.00
  R0019205             JUNCTION     0.00     0.00    69.62     0  00:00        0.00
  R0019849             JUNCTION     0.00     0.66    69.18     0  02:15        0.64
  R0019371             JUNCTION     0.00     0.00    70.41     0  00:00        0.00
  R0019718             JUNCTION     0.00     0.50    69.92     0  02:15        0.50
  R0021442             JUNCTION     0.00     1.54    71.59     0  02:15        1.45
  R0019247             JUNCTION     0.00     0.65    70.53     0  02:15        0.64
  R0019719             JUNCTION     0.00     0.33    70.01     0  02:15        0.32
  R0019767             JUNCTION     0.00     0.45    65.18     0  02:17        0.45
  R0019768             JUNCTION     0.00     0.38    64.15     0  02:17        0.38
  R0021453             JUNCTION     0.00     0.11    70.06     0  02:15        0.11
  R0019839             JUNCTION     0.00     0.26    69.65     0  02:15        0.26
  R0019717             JUNCTION     0.00     0.44    69.78     0  02:16        0.44
  R0019252             JUNCTION     0.00     0.76    70.95     0  02:15        0.73
  R0019721             JUNCTION     0.00     0.29    70.16     0  02:15        0.28
  R0019942             JUNCTION     0.00     0.63    69.28     0  02:15        0.60
  R0019206             JUNCTION     0.00     0.00    69.07     0  00:00        0.00
  R0019840             JUNCTION     0.00     0.24    69.21     0  02:15        0.23
  R0043702             JUNCTION     0.00     0.36    69.06     0  02:15        0.35
  R0019723             JUNCTION     0.00     0.17    70.25     0  02:15        0.17
  R0019724             JUNCTION     0.00     0.10    70.26     0  02:15        0.10
  R0021433             JUNCTION     0.00     1.60    71.99     0  02:15        1.45
  R0021435             JUNCTION     0.00     1.67    71.85     0  02:15        1.54
  R0019769             OUTFALL      0.00     0.38    63.76     0  02:17        0.38
  
  
  *******************
  Node Inflow Summary
  *******************
  
  -------------------------------------------------------------------------------------------------
                                  Maximum  Maximum                  Lateral       Total        Flow
                                  Lateral    Total  Time of Max      Inflow      Inflow     Balance
                                   Inflow   Inflow   Occurrence      Volume      Volume       Error
  Node                 Type           CMS      CMS  days hr:min    10^6 ltr    10^6 ltr     Percent
  -------------------------------------------------------------------------------------------------
  R0019466             JUNCTION     0.067    0.088     0  02:12      0.0336      0.0555       0.237
  R0019468             JUNCTION     0.041    0.111     0  02:15      0.0198      0.0752      -0.093
  R0019831             JUNCTION     0.054    0.054     0  02:15      0.0265      0.0265       0.170
  R0019825             JUNCTION     0.054    0.101     0  02:14      0.0266       0.053       0.444
  R0019843             JUNCTION     0.000    1.294     0  02:16           0       0.832      -0.020
  R0019368             JUNCTION     0.000    1.295     0  02:16           0       0.832       0.024
  R0019369             JUNCTION     0.000    1.342     0  02:16           0       0.832      -0.028
  R0019370             JUNCTION     0.000    1.302     0  02:16           0       0.832       0.006
  R0019345             JUNCTION     0.000    0.100     0  02:15           0      0.0519       0.082
  R0019346             JUNCTION     0.008    0.162     0  02:15     0.00349      0.0877       0.011
  R0043600             JUNCTION     0.000    0.175     0  02:15           0       0.101      -0.043
  R0019203             JUNCTION     0.017    0.401     0  02:15     0.00754       0.233       0.005
  R0043594             JUNCTION     0.092    0.134     0  02:15      0.0475      0.0684      -0.277
  R0021458             JUNCTION     0.074    0.191     0  02:15      0.0372       0.106      -0.019
  R0019202             JUNCTION     0.025    0.219     0  02:15      0.0114       0.124      -0.545
  R0019373             JUNCTION     0.059    0.059     0  02:15      0.0293      0.0294       2.733
  R0019254             JUNCTION     0.049    0.101     0  02:15      0.0239       0.052       0.083
  R0019716             JUNCTION     0.073    0.781     0  02:16      0.0369       0.472      -0.055
  R0019946             JUNCTION     0.000    0.783     0  02:16           0       0.473       0.045
  R0013935             JUNCTION     0.047    0.047     0  02:15      0.0228      0.0228       0.086
  R0019939             JUNCTION     0.019    0.062     0  02:15     0.00841      0.0312      -0.095
  R0019944             JUNCTION     0.044    0.965     0  02:16      0.0212       0.604       0.014
  R0043703             JUNCTION     0.053    0.825     0  02:16      0.0259       0.498       0.012
  R0019945             JUNCTION     0.000    0.944     0  02:16           0       0.583      -0.013
  R0039621             JUNCTION     0.000    0.009     0  02:12           0     0.00107       1.381
  R0019838             JUNCTION     0.098    0.098     0  02:15      0.0514      0.0525      -0.032
  R0039606             JUNCTION     0.000    0.163     0  02:15           0       0.106       0.182
  R0019204             JUNCTION     0.000    0.000     0  00:00           0           0       0.000 ltr
  R0019205             JUNCTION     0.000    0.000     0  00:00           0           0       0.000 ltr
  R0019849             JUNCTION     0.000    0.145     0  02:15           0      0.0843       0.071
  R0019371             JUNCTION     0.000    0.000     0  00:00           0           0       0.000 ltr
  R0019718             JUNCTION     0.064    0.449     0  02:15      0.0317       0.264      -2.789
  R0021442             JUNCTION     0.072    0.147     0  02:15      0.0372      0.0844       0.123
  R0019247             JUNCTION     0.035    0.174     0  02:15      0.0166       0.101      -0.022
  R0019719             JUNCTION     0.037    0.190     0  02:15      0.0174       0.105       0.743
  R0019767             JUNCTION     0.000    1.295     0  02:17           0       0.832      -0.010
  R0019768             JUNCTION     0.000    1.292     0  02:17           0       0.832       0.029
  R0021453             JUNCTION     0.043    0.043     0  02:15      0.0209      0.0209       0.011
  R0019839             JUNCTION     0.097    0.184     0  02:15      0.0508       0.102      -0.041
  R0019717             JUNCTION     0.119    0.731     0  02:15      0.0637        0.44       1.025
  R0019252             JUNCTION     0.057    0.057     0  02:15       0.028       0.028      -0.178
  R0019721             JUNCTION     0.017    0.066     0  02:15     0.00742      0.0324       0.048
  R0019942             JUNCTION     0.000    0.093     0  02:15           0      0.0528      -0.512
  R0019206             JUNCTION     0.000    0.000     0  00:00           0           0       0.000 ltr
  R0019840             JUNCTION     0.000    0.290     0  02:15           0       0.178       0.034
  R0043702             JUNCTION     0.097    0.376     0  02:15      0.0509       0.228      -0.015
  R0019723             JUNCTION     0.041    0.052     0  02:15      0.0196      0.0249      -0.199
  R0019724             JUNCTION     0.012    0.012     0  02:15     0.00528     0.00528      -0.180
  R0021433             JUNCTION     0.059    0.059     0  02:15      0.0291      0.0291      -0.329
  R0021435             JUNCTION     0.038    0.086     0  02:15       0.018      0.0472      -0.052
  R0019769             OUTFALL      0.000    1.293     0  02:17           0       0.832       0.000
  
  
  **********************
  Node Surcharge Summary
  **********************
  
  Surcharging occurs when water rises above the top of the highest conduit.
  ---------------------------------------------------------------------
                                               Max. Height   Min. Depth
                                   Hours       Above Crown    Below Rim
  Node                 Type      Surcharged         Meters       Meters
  ---------------------------------------------------------------------
  R0019466             JUNCTION        0.11          0.419        2.091
  R0019468             JUNCTION        0.10          0.337        2.093
  R0019831             JUNCTION        0.03          0.349        1.011
  R0019825             JUNCTION        0.08          0.565        0.635
  R0019345             JUNCTION        0.04          0.111        1.639
  R0019373             JUNCTION        0.04          0.191        2.309
  R0019254             JUNCTION        0.06          0.427        1.403
  R0013935             JUNCTION        0.04          0.180        1.140
  R0019939             JUNCTION        0.10          0.376        1.244
  R0019849             JUNCTION        0.12          0.358        1.572
  R0021442             JUNCTION        0.13          1.242        0.508
  R0019247             JUNCTION        0.05          0.252        1.608
  R0019252             JUNCTION        0.04          0.457        1.183
  R0019942             JUNCTION        0.08          0.330        1.320
  R0021433             JUNCTION        0.08          1.295        0.555
  R0021435             JUNCTION        0.11          1.371        0.439
  
  
  *********************
  Node Flooding Summary
  *********************
  
  No nodes were flooded.
  
  
  ***********************
  Outfall Loading Summary
  ***********************
  
  -----------------------------------------------------------
                         Flow       Avg       Max       Total
                         Freq      Flow      Flow      Volume
  Outfall Node           Pcnt       CMS       CMS    10^6 ltr
  -----------------------------------------------------------
  R0019769               4.07     0.075     1.293       0.832
  -----------------------------------------------------------
  System                 4.07     0.075     1.293       0.832
  
  
  ********************
  Link Flow Summary
  ********************
  
  -----------------------------------------------------------------------------
                                 Maximum  Time of Max   Maximum    Max/    Max/
                                  |Flow|   Occurrence   |Veloc|    Full    Full
  Link                 Type          CMS  days hr:min     m/sec    Flow   Depth
  -----------------------------------------------------------------------------
  H0014431             CONDUIT     0.074     0  02:13      1.05    1.38    1.00
  H0014433             CONDUIT     0.048     0  02:14      0.74    0.61    1.00
  H0014352             CONDUIT     1.295     0  02:16      3.02    0.53    0.65
  H0014373             CONDUIT     1.302     0  02:16      3.92    0.60    0.52
  H0017981             CONDUIT     0.100     0  02:15      1.42    2.83    1.00
  H0017755             CONDUIT     0.173     0  02:15      1.45    1.40    0.91
  H0017791             CONDUIT     0.120     0  02:15      0.64    0.17    0.34
  H0017357             CONDUIT     0.055     0  02:15      0.78    0.88    1.00
  H0018216             CONDUIT     0.100     0  02:15      1.41    1.82    1.00
  H0016792             CONDUIT     0.783     0  02:16      1.97    0.45    0.60
  H0019507             CONDUIT     0.043     0  02:15      0.74    0.60    1.00
  H0019998             CONDUIT     0.968     0  02:16      3.25    0.39    0.48
  H0019576             CONDUIT     0.830     0  02:16      2.35    0.56    0.55
  H0020087             CONDUIT     0.009     0  02:12      0.23    0.04    0.46
  H0020211             CONDUIT     0.796     0  02:16      1.96    1.98    0.62
  H0018982             CONDUIT     0.163     0  02:15      0.85    0.26    0.40
  H0018753             CONDUIT     0.039     0  02:12      0.64    0.55    1.00
  H0018845             CONDUIT     0.000     0  00:00      0.00    0.00    0.00
  H0018863             CONDUIT     0.056     0  02:15      0.80    1.33    1.00
  H0019156             CONDUIT     0.000     0  00:00      0.00    0.00    0.00
  H0018929             CONDUIT     0.402     0  02:15      1.26    0.35    0.51
  H0018440             CONDUIT     0.144     0  02:15      2.04    2.59    1.00
  H0018456             CONDUIT     0.161     0  02:15      1.47    0.98    0.82
  H0018968             CONDUIT     1.292     0  02:17      4.47    0.50    0.46
  H0022036             CONDUIT     0.042     0  02:15      0.59    0.03    0.20
  H0021806             CONDUIT     0.175     0  02:15      1.39    1.55    1.00
  H0022111             CONDUIT     0.090     0  02:15      0.82    0.64    0.55
  H0021440             CONDUIT     0.735     0  02:16      2.35    0.47    0.50
  H0021704             CONDUIT     0.459     0  02:16      1.47    0.88    0.50
  H0020521             CONDUIT     0.054     0  02:15      0.76    1.09    1.00
  H0020755             CONDUIT     0.059     0  02:16      0.64    0.64    0.76
  H0020530             CONDUIT     1.342     0  02:16      3.00    1.15    0.66
  H0020618             CONDUIT     0.943     0  02:16      3.04    0.58    0.49
  H0021163             CONDUIT     0.093     0  02:15      1.32    1.56    1.00
  H0020497             CONDUIT     0.000     0  00:00      0.00    0.00    0.79
  H0024325             CONDUIT     0.181     0  02:15      1.85    0.54    0.50
  H0023585             CONDUIT     0.376     0  02:15      2.51    0.86    0.72
  H0024098             CONDUIT     0.144     0  02:15      2.03    1.68    1.00
  H0024235             CONDUIT     0.190     0  02:15      1.47    0.78    0.63
  H0024282             CONDUIT     0.000     0  00:00      0.00    0.00    0.00
  H0024308             CONDUIT     1.293     0  02:17      4.99    0.38    0.43
  H0024498             CONDUIT     0.110     0  02:15      1.56    1.70    1.00
  H0026990             CONDUIT     0.050     0  02:15      0.78    0.38    0.56
  H0041650             CONDUIT     0.216     0  02:15      0.81    0.25    0.45
  H0041011             CONDUIT     0.091     0  02:15      1.29    0.90    1.00
  H0045103             CONDUIT     0.170     0  02:16      0.75    0.21    0.43
  H0045104             CONDUIT     1.295     0  02:17      4.19    0.46    0.49
  H0045105             CONDUIT     0.012     0  02:15      0.38    0.20    0.45
  H0045106             CONDUIT     0.290     0  02:15      2.37    0.39    0.60
  H0045107             CONDUIT     0.050     0  02:15      0.78    0.83    1.00
  H0045108             CONDUIT     0.083     0  02:15      1.17    1.49    1.00
  
  
  ***************************
  Flow Classification Summary
  ***************************
  
  -------------------------------------------------------------------------------------
                      Adjusted    ---------- Fraction of Time in Flow Class ---------- 
                       /Actual         Up    Down  Sub   Sup   Up    Down  Norm  Inlet 
  Conduit               Length    Dry  Dry   Dry   Crit  Crit  Crit  Crit  Ltd   Ctrl  
  -------------------------------------------------------------------------------------
  H0014431                1.00   0.03  0.00  0.00  0.97  0.00  0.00  0.00  0.97  0.00
  H0014433                1.00   0.03  0.00  0.00  0.97  0.00  0.00  0.00  0.97  0.00
  H0014352                1.00   0.03  0.00  0.00  0.95  0.02  0.00  0.00  0.97  0.00
  H0014373                1.00   0.03  0.00  0.00  0.94  0.03  0.00  0.00  0.92  0.00
  H0017981                1.00   0.03  0.00  0.00  0.00  0.00  0.00  0.97  0.00  0.00
  H0017755                1.00   0.03  0.00  0.00  0.00  0.00  0.00  0.97  0.00  0.00
  H0017791                1.00   0.03  0.00  0.00  0.97  0.00  0.00  0.00  0.97  0.00
  H0017357                1.00   0.03  0.97  0.00  0.00  0.00  0.00  0.00  0.97  0.00
  H0018216                1.00   0.03  0.93  0.00  0.04  0.00  0.00  0.00  0.97  0.00
  H0016792                1.00   0.03  0.92  0.00  0.05  0.00  0.00  0.00  0.97  0.00
  H0019507                1.00   0.03  0.00  0.00  0.97  0.00  0.00  0.00  0.97  0.00
  H0019998                1.00   0.03  0.00  0.00  0.94  0.03  0.00  0.00  0.05  0.00
  H0019576                1.00   0.03  0.00  0.00  0.96  0.01  0.00  0.00  0.05  0.00
  H0020087                1.00   0.03  0.96  0.00  0.01  0.00  0.00  0.00  0.97  0.00
  H0020211                1.00   0.03  0.00  0.00  0.97  0.00  0.00  0.00  0.92  0.00
  H0018982                1.00   0.03  0.00  0.00  0.97  0.00  0.00  0.00  0.95  0.00
  H0018753                1.00   0.03  0.00  0.00  0.97  0.00  0.00  0.00  0.97  0.00
  H0018845                1.00   1.00  0.00  0.00  0.00  0.00  0.00  0.00  0.00  0.00
  H0018863                1.00   0.03  0.00  0.00  0.97  0.00  0.00  0.00  0.97  0.00
  H0019156                1.00   1.00  0.00  0.00  0.00  0.00  0.00  0.00  0.00  0.00
  H0018929                1.00   0.03  0.93  0.00  0.04  0.00  0.00  0.00  0.97  0.00
  H0018440                1.00   0.03  0.00  0.00  0.97  0.00  0.00  0.00  0.97  0.00
  H0018456                1.00   0.03  0.00  0.00  0.97  0.00  0.00  0.00  0.97  0.00
  H0018968                1.00   0.03  0.92  0.00  0.01  0.04  0.00  0.00  0.94  0.00
  H0022036                1.00   0.03  0.00  0.00  0.01  0.00  0.00  0.96  0.01  0.00
  H0021806                1.00   0.03  0.93  0.00  0.04  0.00  0.00  0.00  0.97  0.00
  H0022111                1.00   0.03  0.00  0.00  0.97  0.00  0.00  0.00  0.00  0.00
  H0021440                1.00   0.03  0.00  0.00  0.95  0.02  0.00  0.00  0.02  0.00
  H0021704                1.00   0.03  0.00  0.00  0.00  0.00  0.00  0.97  0.00  0.00
  H0020521                1.00   0.03  0.00  0.00  0.97  0.00  0.00  0.00  0.97  0.00
  H0020755                1.00   0.03  0.94  0.00  0.04  0.00  0.00  0.00  0.97  0.00
  H0020530                1.00   0.03  0.00  0.00  0.96  0.02  0.00  0.00  0.01  0.00
  H0020618                1.00   0.03  0.00  0.00  0.95  0.03  0.00  0.00  0.93  0.00
  H0021163                1.00   0.03  0.00  0.00  0.97  0.00  0.00  0.00  0.94  0.00
  H0020497                1.20   0.03  0.97  0.00  0.00  0.00  0.00  0.00  0.00  0.00
  H0024325                1.00   0.03  0.00  0.00  0.95  0.02  0.00  0.00  0.94  0.00
  H0023585                1.00   0.03  0.00  0.00  0.00  0.00  0.00  0.97  0.00  0.00
  H0024098                1.00   0.03  0.93  0.00  0.04  0.00  0.00  0.00  0.97  0.00
  H0024235                1.00   0.03  0.00  0.00  0.00  0.00  0.00  0.97  0.00  0.00
  H0024282                1.00   1.00  0.00  0.00  0.00  0.00  0.00  0.00  0.00  0.00
  H0024308                1.00   0.03  0.00  0.00  0.92  0.05  0.00  0.00  0.01  0.00
  H0024498                1.00   0.03  0.00  0.00  0.00  0.00  0.00  0.97  0.00  0.00
  H0026990                1.00   0.03  0.00  0.00  0.97  0.00  0.00  0.00  0.97  0.00
  H0041650                1.00   0.96  0.01  0.00  0.03  0.00  0.00  0.00  0.97  0.00
  H0041011                1.00   0.03  0.00  0.00  0.97  0.00  0.00  0.00  0.97  0.00
  H0045103                1.00   0.03  0.00  0.00  0.97  0.00  0.00  0.00  0.95  0.00
  H0045104                1.00   0.03  0.00  0.00  0.93  0.04  0.00  0.00  0.05  0.00
  H0045105                1.00   0.03  0.00  0.00  0.97  0.00  0.00  0.00  0.97  0.00
  H0045106                1.00   0.03  0.93  0.00  0.02  0.02  0.00  0.00  0.97  0.00
  H0045107                1.00   0.03  0.00  0.00  0.97  0.00  0.00  0.00  0.97  0.00
  H0045108                1.00   0.03  0.00  0.00  0.97  0.00  0.00  0.00  0.97  0.00
  
  
  *************************
  Conduit Surcharge Summary
  *************************
  
  ----------------------------------------------------------------------------
                                                           Hours        Hours 
                         --------- Hours Full --------   Above Full   Capacity
  Conduit                Both Ends  Upstream  Dnstream   Normal Flow   Limited
  ----------------------------------------------------------------------------
  H0014431                    0.10      0.11      0.10      0.12         0.10
  H0014433                    0.03      0.03      0.08      0.01         0.01
  H0017981                    0.01      0.04      0.01      0.13         0.02
  H0017755                    0.01      0.01      0.01      0.06         0.01
  H0017357                    0.01      0.01      0.04      0.01         0.01
  H0018216                    0.04      0.06      0.04      0.09         0.05
  H0019507                    0.04      0.04      0.10      0.01         0.01
  H0020211                    0.01      0.01      0.01      0.10         0.01
  H0018753                    0.04      0.04      0.11      0.01         0.01
  H0018863                    0.10      0.10      0.12      0.04         0.03
  H0018440                    0.08      0.13      0.08      0.15         0.11
  H0021806                    0.01      0.05      0.01      0.07         0.04
  H0020521                    0.04      0.04      0.06      0.02         0.02
  H0020530                    0.01      0.01      0.01      0.03         0.01
  H0021163                    0.07      0.08      0.08      0.08         0.06
  H0024098                    0.11      0.12      0.14      0.09         0.07
  H0024498                    0.01      0.10      0.01      0.13         0.07
  H0041011                    0.08      0.08      0.12      0.01         0.01
  H0045107                    0.08      0.08      0.11      0.01         0.01
  H0045108                    0.11      0.11      0.13      0.07         0.07
  

  Analysis begun on:  Fri Mar 22 15:56:40 2024
  Analysis ended on:  Fri Mar 22 15:56:49 2024
  Total elapsed time: 00:00:09