
  EPA STORM WATER MANAGEMENT MODEL - VERSION 5.2 (Build 5.2.4)
  PYSWMM TOOLKIT API - VERSION v1.0 (2023-11-27)
  ------------------------------------------------------------

  Gievenbeck_2017-06-30 17 00 00_hN6 83 
  
  ****************
  Analysis Options
  ****************
  Flow Units ............... CMS
  Process Models:
    Rainfall/Runoff ........ YES
    RDII ................... NO
    Snowmelt ............... NO
    Groundwater ............ NO
    Flow Routing ........... YES
    Ponding Allowed ........ NO
    Water Quality .......... NO
  Infiltration Method ...... HORTON
  Flow Routing Method ...... DYNWAVE
  Surcharge Method ......... SLOT
  Starting Date ............ 01/01/2024 00:00:00
  Ending Date .............. 01/04/2024 04:00:00
  Antecedent Dry Days ...... 14.0
  Report Time Step ......... 00:01:00
  Wet Time Step ............ 00:01:00
  Dry Time Step ............ 00:01:00
  Routing Time Step ........ 1.00 sec
  Variable Time Step ....... YES
  Maximum Trials ........... 8
  Number of Threads ........ 1
  Head Tolerance ........... 0.001500 m
  
  
  **************************        Volume         Depth
  Runoff Quantity Continuity     hectare-m            mm
  **************************     ---------       -------
  Total Precipitation ......         0.069         6.830
  Evaporation Loss .........         0.010         0.950
  Infiltration Loss ........         0.038         3.767
  Surface Runoff ...........         0.021         2.118
  Final Storage ............         0.000         0.000
  Continuity Error (%) .....        -0.076
  
  
  **************************        Volume        Volume
  Flow Routing Continuity        hectare-m      10^6 ltr
  **************************     ---------     ---------
  Dry Weather Inflow .......         0.000         0.000
  Wet Weather Inflow .......         0.021         0.214
  Groundwater Inflow .......         0.000         0.000
  RDII Inflow ..............         0.000         0.000
  External Inflow ..........         0.000         0.000
  External Outflow .........         0.021         0.214
  Flooding Loss ............         0.000         0.000
  Evaporation Loss .........         0.000         0.000
  Exfiltration Loss ........         0.000         0.000
  Initial Stored Volume ....         0.000         0.000
  Final Stored Volume ......         0.000         0.000
  Continuity Error (%) .....        -0.014
  
  
  ***************************
  Time-Step Critical Elements
  ***************************
  None
  
  
  ********************************
  Highest Flow Instability Indexes
  ********************************
  All links are stable.
  
  
  *********************************
  Most Frequent Nonconverging Nodes
  *********************************
  Convergence obtained at all time steps.
  
  
  *************************
  Routing Time Step Summary
  *************************
  Minimum Time Step           :     0.50 sec
  Average Time Step           :     1.00 sec
  Maximum Time Step           :     1.00 sec
  % of Time in Steady State   :     0.00
  Average Iterations per Step :     2.00
  % of Steps Not Converging   :     0.00
  Time Step Frequencies       :
      1.000 -  0.871 sec      :   100.00 %
      0.871 -  0.758 sec      :     0.00 %
      0.758 -  0.660 sec      :     0.00 %
      0.660 -  0.574 sec      :     0.00 %
      0.574 -  0.500 sec      :     0.00 %
  
  
  ***************************
  Subcatchment Runoff Summary
  ***************************
  
  ------------------------------------------------------------------------------------------------------------------------------
                            Total      Total      Total      Total     Imperv       Perv      Total       Total     Peak  Runoff
                           Precip      Runon       Evap      Infil     Runoff     Runoff     Runoff      Runoff   Runoff   Coeff
  Subcatchment                 mm         mm         mm         mm         mm         mm         mm    10^6 ltr      CMS
  ------------------------------------------------------------------------------------------------------------------------------
  EZG_368                    6.83       0.00       0.94       3.79       2.48       0.00       2.10        0.01     0.01   0.308
  EZG_392                    6.83       0.00       0.94       3.79       2.48       0.00       2.11        0.01     0.01   0.309
  EZG_352                    6.83       0.00       0.95       3.79       2.47       0.00       2.10        0.01     0.01   0.307
  EZG_372                    6.83       0.00       0.93       3.79       2.49       0.00       2.12        0.00     0.00   0.310
  EZG_416                    6.83       0.00       0.94       3.79       2.48       0.00       2.11        0.01     0.01   0.309
  EZG_388                    6.83       0.00       0.95       3.79       2.47       0.00       2.10        0.01     0.01   0.308
  EZG_394                    6.83       0.00       0.94       3.79       2.48       0.00       2.11        0.01     0.01   0.309
  EZG_400                    6.83       0.00       0.94       3.79       2.48       0.00       2.11        0.01     0.01   0.309
  EZG_390                    6.83       0.00       0.94       3.79       2.48       0.00       2.11        0.01     0.01   0.309
  EZG_350                    6.83       0.00       0.95       3.79       2.47       0.00       2.10        0.01     0.01   0.308
  EZG_370                    6.83       0.00       0.94       3.79       2.48       0.00       2.11        0.01     0.01   0.308
  EZG_398                    6.83       0.00       0.93       3.79       2.50       0.00       2.12        0.00     0.00   0.311
  EZG_382                    6.83       0.00       0.93       3.79       2.50       0.00       2.12        0.00     0.00   0.311
  EZG_374                    6.83       0.00       1.14       3.18       2.96       0.00       2.52        0.01     0.01   0.369
  EZG_412                    6.83       0.00       0.92       3.79       2.51       0.00       2.13        0.00     0.00   0.312
  EZG_344                    6.83       0.00       0.94       3.79       2.48       0.00       2.11        0.01     0.01   0.309
  EZG_376                    6.83       0.00       0.94       3.79       2.49       0.00       2.11        0.00     0.00   0.309
  EZG_356                    6.83       0.00       0.95       3.79       2.47       0.00       2.10        0.01     0.01   0.307
  EZG_386                    6.83       0.00       0.96       3.78       2.46       0.00       2.09        0.02     0.01   0.307
  EZG_380                    6.83       0.00       0.94       3.79       2.48       0.00       2.10        0.01     0.01   0.308
  EZG_378                    6.83       0.00       0.94       3.79       2.48       0.00       2.11        0.01     0.01   0.308
  EZG_414                    6.83       0.00       0.93       3.79       2.50       0.00       2.12        0.00     0.00   0.311
  EZG_402                    6.83       0.00       0.94       3.79       2.48       0.00       2.11        0.01     0.01   0.309
  EZG_358                    6.83       0.00       0.95       3.79       2.47       0.00       2.10        0.01     0.01   0.307
  EZG_364                    6.83       0.00       0.95       3.79       2.47       0.00       2.10        0.01     0.01   0.307
  EZG_410                    6.83       0.00       0.94       3.79       2.49       0.00       2.11        0.00     0.00   0.309
  EZG_366                    6.83       0.00       0.94       3.79       2.48       0.00       2.11        0.01     0.00   0.309
  EZG_18259                  6.83       0.00       0.94       3.79       2.48       0.00       2.11        0.01     0.00   0.309
  EZG_18258                  6.83       0.00       0.92       3.79       2.50       0.00       2.13        0.00     0.00   0.311
  EZG_346                    6.83       0.00       0.92       3.85       2.43       0.00       2.06        0.01     0.01   0.302
  EZG_348                    6.83       0.00       0.92       3.85       2.44       0.00       2.07        0.00     0.00   0.303
  
  
  ******************
  Node Depth Summary
  ******************
  
  ---------------------------------------------------------------------------------
                                 Average  Maximum  Maximum  Time of Max    Reported
                                   Depth    Depth      HGL   Occurrence   Max Depth
  Node                 Type       Meters   Meters   Meters  days hr:min      Meters
  ---------------------------------------------------------------------------------
  R0019466             JUNCTION     0.00     0.10    69.55     0  02:11        0.10
  R0019468             JUNCTION     0.00     0.10    69.41     0  02:12        0.10
  R0019831             JUNCTION     0.00     0.06    69.23     0  02:10        0.06
  R0019825             JUNCTION     0.00     0.09    68.93     0  02:11        0.09
  R0019843             JUNCTION     0.00     0.14    67.77     0  02:16        0.14
  R0019368             JUNCTION     0.00     0.21    67.00     0  02:17        0.21
  R0019369             JUNCTION     0.00     0.15    66.74     0  02:17        0.15
  R0019370             JUNCTION     0.00     0.13    66.03     0  02:17        0.13
  R0019345             JUNCTION     0.00     0.10    70.00     0  02:12        0.10
  R0019346             JUNCTION     0.00     0.09    69.89     0  02:13        0.09
  R0043600             JUNCTION     0.00     0.10    69.77     0  02:14        0.10
  R0019203             JUNCTION     0.00     0.12    69.66     0  02:15        0.12
  R0043594             JUNCTION     0.00     0.09    69.82     0  02:12        0.09
  R0021458             JUNCTION     0.00     0.11    69.76     0  02:13        0.11
  R0019202             JUNCTION     0.00     0.10    69.68     0  02:15        0.10
  R0019373             JUNCTION     0.00     0.06    69.73     0  02:11        0.06
  R0019254             JUNCTION     0.00     0.09    70.13     0  02:11        0.09
  R0019716             JUNCTION     0.00     0.13    69.14     0  02:16        0.13
  R0019946             JUNCTION     0.00     0.22    68.84     0  02:16        0.22
  R0013935             JUNCTION     0.00     0.05    68.88     0  02:10        0.05
  R0019939             JUNCTION     0.00     0.08    68.65     0  02:11        0.08
  R0019944             JUNCTION     0.00     0.12    68.40     0  02:17        0.12
  R0043703             JUNCTION     0.00     0.14    68.74     0  02:16        0.14
  R0019945             JUNCTION     0.00     0.15    68.55     0  02:16        0.15
  R0039621             JUNCTION     0.00     0.00    69.57     0  00:00        0.00
  R0019838             JUNCTION     0.00     0.09    69.55     0  02:12        0.09
  R0039606             JUNCTION     0.00     0.10    69.69     0  02:14        0.10
  R0019204             JUNCTION     0.00     0.00    69.91     0  00:00        0.00
  R0019205             JUNCTION     0.00     0.00    69.62     0  00:00        0.00
  R0019849             JUNCTION     0.00     0.09    68.61     0  02:12        0.09
  R0019371             JUNCTION     0.00     0.00    70.41     0  00:00        0.00
  R0019718             JUNCTION     0.00     0.17    69.59     0  02:16        0.17
  R0021442             JUNCTION     0.00     0.11    70.16     0  02:12        0.11
  R0019247             JUNCTION     0.00     0.11    69.99     0  02:13        0.11
  R0019719             JUNCTION     0.00     0.10    69.78     0  02:14        0.10
  R0019767             JUNCTION     0.00     0.14    64.87     0  02:18        0.14
  R0019768             JUNCTION     0.00     0.12    63.89     0  02:18        0.12
  R0021453             JUNCTION     0.00     0.04    69.99     0  02:10        0.04
  R0019839             JUNCTION     0.00     0.08    69.47     0  02:12        0.08
  R0019717             JUNCTION     0.00     0.13    69.47     0  02:15        0.13
  R0019252             JUNCTION     0.00     0.07    70.26     0  02:11        0.07
  R0019721             JUNCTION     0.00     0.08    69.95     0  02:12        0.08
  R0019942             JUNCTION     0.00     0.07    68.72     0  02:12        0.07
  R0019206             JUNCTION     0.00     0.00    69.07     0  00:00        0.00
  R0019840             JUNCTION     0.00     0.07    69.04     0  02:13        0.07
  R0043702             JUNCTION     0.00     0.11    68.81     0  02:13        0.11
  R0019723             JUNCTION     0.00     0.06    70.14     0  02:10        0.06
  R0019724             JUNCTION     0.00     0.03    70.19     0  02:10        0.03
  R0021433             JUNCTION     0.00     0.06    70.45     0  02:10        0.06
  R0021435             JUNCTION     0.00     0.08    70.26     0  02:11        0.08
  R0019769             OUTFALL      0.00     0.12    63.50     0  02:18        0.12
  
  
  *******************
  Node Inflow Summary
  *******************
  
  -------------------------------------------------------------------------------------------------
                                  Maximum  Maximum                  Lateral       Total        Flow
                                  Lateral    Total  Time of Max      Inflow      Inflow     Balance
                                   Inflow   Inflow   Occurrence      Volume      Volume       Error
  Node                 Type           CMS      CMS  days hr:min    10^6 ltr    10^6 ltr     Percent
  -------------------------------------------------------------------------------------------------
  R0019466             JUNCTION     0.007    0.013     0  02:10     0.00869      0.0163      -0.069
  R0019468             JUNCTION     0.005    0.017     0  02:11     0.00505      0.0213       0.070
  R0019831             JUNCTION     0.006    0.006     0  02:10     0.00682     0.00682      -0.197
  R0019825             JUNCTION     0.006    0.012     0  02:10     0.00685      0.0137      -0.024
  R0019843             JUNCTION     0.000    0.135     0  02:16           0       0.214      -0.029
  R0019368             JUNCTION     0.000    0.135     0  02:16           0       0.214       0.000
  R0019369             JUNCTION     0.000    0.134     0  02:17           0       0.214       0.006
  R0019370             JUNCTION     0.000    0.134     0  02:17           0       0.214       0.004
  R0019345             JUNCTION     0.000    0.011     0  02:11           0      0.0134       0.252
  R0019346             JUNCTION     0.001    0.018     0  02:12     0.00085      0.0224       0.078
  R0043600             JUNCTION     0.000    0.019     0  02:13           0       0.026       0.263
  R0019203             JUNCTION     0.002    0.041     0  02:14     0.00188       0.058      -0.046
  R0043594             JUNCTION     0.009    0.014     0  02:10      0.0124      0.0177      -0.278
  R0021458             JUNCTION     0.008    0.020     0  02:11     0.00965      0.0274      -0.034
  R0019202             JUNCTION     0.003    0.021     0  02:14     0.00287      0.0303      -0.039
  R0019373             JUNCTION     0.007    0.007     0  02:10     0.00755     0.00755      -0.093
  R0019254             JUNCTION     0.006    0.011     0  02:10     0.00614      0.0134      -0.146
  R0019716             JUNCTION     0.008    0.079     0  02:15     0.00958       0.119      -0.078
  R0019946             JUNCTION     0.000    0.078     0  02:16           0       0.119       0.102
  R0013935             JUNCTION     0.006    0.006     0  02:10     0.00585     0.00585      -0.201
  R0019939             JUNCTION     0.002    0.007     0  02:10      0.0021     0.00796      -0.053
  R0019944             JUNCTION     0.005    0.098     0  02:16     0.00544       0.153      -0.003
  R0043703             JUNCTION     0.006    0.082     0  02:16     0.00667       0.126      -0.016
  R0019945             JUNCTION     0.000    0.095     0  02:16           0       0.148       0.010
  R0039621             JUNCTION     0.000    0.000     0  00:00           0           0       0.000 ltr
  R0019838             JUNCTION     0.010    0.010     0  02:10      0.0134      0.0134      -0.006
  R0039606             JUNCTION     0.000    0.019     0  02:13           0      0.0275       0.247
  R0019204             JUNCTION     0.000    0.000     0  00:00           0           0       0.000 ltr
  R0019205             JUNCTION     0.000    0.000     0  00:00           0           0       0.000 ltr
  R0019849             JUNCTION     0.000    0.018     0  02:11           0      0.0216       0.027
  R0019371             JUNCTION     0.000    0.000     0  00:00           0           0       0.000 ltr
  R0019718             JUNCTION     0.007    0.046     0  02:15     0.00819      0.0662      -0.035
  R0021442             JUNCTION     0.007    0.017     0  02:11     0.00955      0.0217      -0.060
  R0019247             JUNCTION     0.004    0.020     0  02:12     0.00421      0.0259      -0.198
  R0019719             JUNCTION     0.004    0.021     0  02:12     0.00444      0.0268      -0.019
  R0019767             JUNCTION     0.000    0.134     0  02:17           0       0.214       0.003
  R0019768             JUNCTION     0.000    0.134     0  02:18           0       0.214       0.017
  R0021453             JUNCTION     0.005    0.005     0  02:10     0.00534     0.00534       0.505
  R0019839             JUNCTION     0.010    0.018     0  02:11      0.0133      0.0267      -0.073
  R0019717             JUNCTION     0.012    0.073     0  02:15      0.0167        0.11       0.009
  R0019252             JUNCTION     0.006    0.006     0  02:10     0.00722     0.00722      -0.204
  R0019721             JUNCTION     0.002    0.008     0  02:10     0.00185     0.00818       0.032
  R0019942             JUNCTION     0.000    0.011     0  02:11           0      0.0137       0.116
  R0019206             JUNCTION     0.000    0.000     0  00:00           0           0       0.000 ltr
  R0019840             JUNCTION     0.000    0.034     0  02:12           0       0.048       0.043
  R0043702             JUNCTION     0.010    0.043     0  02:12      0.0133      0.0613      -0.009
  R0019723             JUNCTION     0.005    0.006     0  02:10     0.00502     0.00632      -0.254
  R0019724             JUNCTION     0.002    0.002     0  02:10      0.0013      0.0013      -0.246
  R0021433             JUNCTION     0.007    0.007     0  02:10     0.00751     0.00751      -0.210
  R0021435             JUNCTION     0.005    0.011     0  02:10      0.0046      0.0121       0.094
  R0019769             OUTFALL      0.000    0.134     0  02:18           0       0.214       0.000
  
  
  **********************
  Node Surcharge Summary
  **********************
  
  No nodes were surcharged.
  
  
  *********************
  Node Flooding Summary
  *********************
  
  No nodes were flooded.
  
  
  ***********************
  Outfall Loading Summary
  ***********************
  
  -----------------------------------------------------------
                         Flow       Avg       Max       Total
                         Freq      Flow      Flow      Volume
  Outfall Node           Pcnt       CMS       CMS    10^6 ltr
  -----------------------------------------------------------
  R0019769               4.28     0.018     0.134       0.214
  -----------------------------------------------------------
  System                 4.28     0.018     0.134       0.214
  
  
  ********************
  Link Flow Summary
  ********************
  
  -----------------------------------------------------------------------------
                                 Maximum  Time of Max   Maximum    Max/    Max/
                                  |Flow|   Occurrence   |Veloc|    Full    Full
  Link                 Type          CMS  days hr:min     m/sec    Flow   Depth
  -----------------------------------------------------------------------------
  H0014431             CONDUIT     0.013     0  02:11      0.63    0.24    0.33
  H0014433             CONDUIT     0.006     0  02:10      0.46    0.07    0.24
  H0014352             CONDUIT     0.135     0  02:16      1.56    0.06    0.19
  H0014373             CONDUIT     0.134     0  02:17      2.04    0.06    0.16
  H0017981             CONDUIT     0.010     0  02:13      0.59    0.29    0.30
  H0017755             CONDUIT     0.019     0  02:14      0.77    0.15    0.25
  H0017791             CONDUIT     0.013     0  02:12      0.37    0.02    0.11
  H0017357             CONDUIT     0.000     0  00:00      0.00    0.00    0.10
  H0018216             CONDUIT     0.011     0  02:11      0.59    0.19    0.32
  H0016792             CONDUIT     0.078     0  02:16      0.92    0.04    0.19
  H0019507             CONDUIT     0.005     0  02:10      0.45    0.07    0.23
  H0019998             CONDUIT     0.098     0  02:17      1.68    0.04    0.15
  H0019576             CONDUIT     0.082     0  02:17      1.22    0.05    0.16
  H0020087             CONDUIT     0.000     0  00:00      0.00    0.00    0.09
  H0020211             CONDUIT     0.078     0  02:16      0.87    0.20    0.20
  H0018982             CONDUIT     0.019     0  02:13      0.48    0.03    0.12
  H0018753             CONDUIT     0.006     0  02:11      0.41    0.09    0.27
  H0018845             CONDUIT     0.000     0  00:00      0.00    0.00    0.00
  H0018863             CONDUIT     0.007     0  02:11      0.43    0.16    0.29
  H0019156             CONDUIT     0.000     0  00:00      0.00    0.00    0.00
  H0018929             CONDUIT     0.041     0  02:15      0.66    0.04    0.16
  H0018440             CONDUIT     0.016     0  02:12      0.69    0.29    0.38
  H0018456             CONDUIT     0.018     0  02:13      0.82    0.11    0.23
  H0018968             CONDUIT     0.134     0  02:18      2.32    0.05    0.15
  H0022036             CONDUIT     0.005     0  02:10      0.46    0.00    0.05
  H0021806             CONDUIT     0.019     0  02:13      0.71    0.17    0.27
  H0022111             CONDUIT     0.009     0  02:12      0.42    0.06    0.17
  H0021440             CONDUIT     0.073     0  02:15      1.27    0.05    0.15
  H0021704             CONDUIT     0.045     0  02:16      0.68    0.09    0.16
  H0020521             CONDUIT     0.006     0  02:11      0.40    0.12    0.26
  H0020755             CONDUIT     0.007     0  02:12      0.42    0.08    0.20
  H0020530             CONDUIT     0.134     0  02:17      1.48    0.11    0.20
  H0020618             CONDUIT     0.095     0  02:16      1.59    0.06    0.15
  H0021163             CONDUIT     0.011     0  02:11      0.77    0.19    0.26
  H0020497             CONDUIT     0.000     0  00:00      0.00    0.00    0.24
  H0024325             CONDUIT     0.018     0  02:12      0.96    0.05    0.15
  H0023585             CONDUIT     0.043     0  02:13      1.41    0.10    0.21
  H0024098             CONDUIT     0.018     0  02:12      0.94    0.21    0.38
  H0024235             CONDUIT     0.020     0  02:14      0.78    0.08    0.19
  H0024282             CONDUIT     0.000     0  00:00      0.00    0.00    0.00
  H0024308             CONDUIT     0.134     0  02:18      2.60    0.04    0.14
  H0024498             CONDUIT     0.016     0  02:13      0.79    0.25    0.33
  H0026990             CONDUIT     0.006     0  02:10      0.48    0.04    0.16
  H0041650             CONDUIT     0.021     0  02:15      0.49    0.02    0.12
  H0041011             CONDUIT     0.011     0  02:12      0.73    0.11    0.27
  H0045103             CONDUIT     0.019     0  02:14      0.51    0.02    0.11
  H0045104             CONDUIT     0.134     0  02:17      2.18    0.05    0.15
  H0045105             CONDUIT     0.002     0  02:10      0.24    0.03    0.15
  H0045106             CONDUIT     0.034     0  02:13      1.43    0.05    0.18
  H0045107             CONDUIT     0.006     0  02:10      0.48    0.10    0.25
  H0045108             CONDUIT     0.010     0  02:11      0.48    0.17    0.33
  
  
  ***************************
  Flow Classification Summary
  ***************************
  
  -------------------------------------------------------------------------------------
                      Adjusted    ---------- Fraction of Time in Flow Class ---------- 
                       /Actual         Up    Down  Sub   Sup   Up    Down  Norm  Inlet 
  Conduit               Length    Dry  Dry   Dry   Crit  Crit  Crit  Crit  Ltd   Ctrl  
  -------------------------------------------------------------------------------------
  H0014431                1.00   0.03  0.00  0.00  0.97  0.00  0.00  0.00  0.97  0.00
  H0014433                1.00   0.03  0.00  0.00  0.97  0.00  0.00  0.00  0.97  0.00
  H0014352                1.00   0.03  0.00  0.00  0.95  0.02  0.00  0.00  0.97  0.00
  H0014373                1.00   0.03  0.00  0.00  0.94  0.04  0.00  0.00  0.92  0.00
  H0017981                1.00   0.03  0.00  0.00  0.00  0.00  0.00  0.97  0.00  0.00
  H0017755                1.00   0.03  0.00  0.00  0.00  0.00  0.00  0.97  0.00  0.00
  H0017791                1.00   0.03  0.00  0.00  0.97  0.00  0.00  0.00  0.97  0.00
  H0017357                1.00   0.03  0.97  0.00  0.00  0.00  0.00  0.00  0.00  0.00
  H0018216                1.00   0.03  0.93  0.00  0.04  0.00  0.00  0.00  0.97  0.00
  H0016792                1.00   0.03  0.92  0.00  0.05  0.00  0.00  0.00  0.97  0.00
  H0019507                1.00   0.03  0.00  0.00  0.97  0.00  0.00  0.00  0.97  0.00
  H0019998                1.00   0.03  0.00  0.00  0.94  0.04  0.00  0.00  0.05  0.00
  H0019576                1.00   0.03  0.00  0.00  0.96  0.02  0.00  0.00  0.05  0.00
  H0020087                1.00   0.03  0.97  0.00  0.00  0.00  0.00  0.00  0.00  0.00
  H0020211                1.00   0.03  0.00  0.00  0.97  0.00  0.00  0.00  0.92  0.00
  H0018982                1.00   0.03  0.00  0.00  0.97  0.00  0.00  0.00  0.94  0.00
  H0018753                1.00   0.03  0.00  0.00  0.97  0.00  0.00  0.00  0.97  0.00
  H0018845                1.00   1.00  0.00  0.00  0.00  0.00  0.00  0.00  0.00  0.00
  H0018863                1.00   0.03  0.00  0.00  0.97  0.00  0.00  0.00  0.97  0.00
  H0019156                1.00   1.00  0.00  0.00  0.00  0.00  0.00  0.00  0.00  0.00
  H0018929                1.00   0.03  0.93  0.00  0.05  0.00  0.00  0.00  0.97  0.00
  H0018440                1.00   0.03  0.00  0.00  0.97  0.00  0.00  0.00  0.97  0.00
  H0018456                1.00   0.03  0.00  0.00  0.97  0.00  0.00  0.00  0.97  0.00
  H0018968                1.00   0.03  0.00  0.00  0.93  0.04  0.00  0.00  0.94  0.00
  H0022036                1.00   0.03  0.00  0.00  0.01  0.00  0.00  0.96  0.00  0.00
  H0021806                1.00   0.03  0.93  0.00  0.04  0.00  0.00  0.00  0.96  0.00
  H0022111                1.00   0.03  0.00  0.00  0.97  0.00  0.00  0.00  0.00  0.00
  H0021440                1.00   0.03  0.00  0.00  0.95  0.02  0.00  0.00  0.02  0.00
  H0021704                1.00   0.03  0.00  0.00  0.00  0.00  0.00  0.97  0.00  0.00
  H0020521                1.00   0.03  0.00  0.00  0.97  0.00  0.00  0.00  0.97  0.00
  H0020755                1.00   0.03  0.93  0.00  0.04  0.00  0.00  0.00  0.97  0.00
  H0020530                1.00   0.03  0.00  0.00  0.95  0.02  0.00  0.00  0.00  0.00
  H0020618                1.00   0.03  0.00  0.00  0.94  0.03  0.00  0.00  0.93  0.00
  H0021163                1.00   0.03  0.00  0.00  0.97  0.00  0.00  0.00  0.94  0.00
  H0020497                1.20   0.03  0.97  0.00  0.00  0.00  0.00  0.00  0.00  0.00
  H0024325                1.00   0.03  0.00  0.00  0.95  0.02  0.00  0.00  0.94  0.00
  H0023585                1.00   0.03  0.00  0.00  0.00  0.00  0.00  0.97  0.00  0.00
  H0024098                1.00   0.03  0.93  0.00  0.04  0.00  0.00  0.00  0.97  0.00
  H0024235                1.00   0.03  0.00  0.00  0.00  0.00  0.00  0.97  0.00  0.00
  H0024282                1.00   1.00  0.00  0.00  0.00  0.00  0.00  0.00  0.00  0.00
  H0024308                1.00   0.03  0.00  0.00  0.92  0.05  0.00  0.00  0.01  0.00
  H0024498                1.00   0.03  0.00  0.00  0.00  0.00  0.00  0.97  0.00  0.00
  H0026990                1.00   0.03  0.00  0.00  0.97  0.00  0.00  0.00  0.97  0.00
  H0041650                1.00   0.95  0.01  0.00  0.04  0.00  0.00  0.00  0.97  0.00
  H0041011                1.00   0.03  0.00  0.00  0.97  0.00  0.00  0.00  0.97  0.00
  H0045103                1.00   0.03  0.00  0.00  0.97  0.00  0.00  0.00  0.95  0.00
  H0045104                1.00   0.03  0.00  0.00  0.93  0.04  0.00  0.00  0.05  0.00
  H0045105                1.00   0.03  0.00  0.00  0.97  0.00  0.00  0.00  0.97  0.00
  H0045106                1.00   0.03  0.00  0.00  0.95  0.02  0.00  0.00  0.97  0.00
  H0045107                1.00   0.03  0.00  0.00  0.97  0.00  0.00  0.00  0.97  0.00
  H0045108                1.00   0.03  0.00  0.00  0.97  0.00  0.00  0.00  0.97  0.00
  
  
  *************************
  Conduit Surcharge Summary
  *************************
  
  No conduits were surcharged.
  

  Analysis begun on:  Fri Mar 22 15:54:39 2024
  Analysis ended on:  Fri Mar 22 15:54:49 2024
  Total elapsed time: 00:00:10