
  EPA STORM WATER MANAGEMENT MODEL - VERSION 5.2 (Build 5.2.4)
  PYSWMM TOOLKIT API - VERSION v1.0 (2023-11-27)
  ------------------------------------------------------------

  Gievenbeck_e2_T3D180 
  
  ****************
  Analysis Options
  ****************
  Flow Units ............... CMS
  Process Models:
    Rainfall/Runoff ........ YES
    RDII ................... NO
    Snowmelt ............... NO
    Groundwater ............ NO
    Flow Routing ........... YES
    Ponding Allowed ........ NO
    Water Quality .......... NO
  Infiltration Method ...... HORTON
  Flow Routing Method ...... DYNWAVE
  Surcharge Method ......... SLOT
  Starting Date ............ 01/01/2024 00:00:00
  Ending Date .............. 01/04/2024 04:00:00
  Antecedent Dry Days ...... 14.0
  Report Time Step ......... 00:01:00
  Wet Time Step ............ 00:01:00
  Dry Time Step ............ 00:01:00
  Routing Time Step ........ 1.00 sec
  Variable Time Step ....... YES
  Maximum Trials ........... 8
  Number of Threads ........ 1
  Head Tolerance ........... 0.001500 m
  
  
  **************************        Volume         Depth
  Runoff Quantity Continuity     hectare-m            mm
  **************************     ---------       -------
  Total Precipitation ......         0.279        27.600
  Evaporation Loss .........         0.010         0.952
  Infiltration Loss ........         0.152        15.033
  Surface Runoff ...........         0.118        11.644
  Final Storage ............         0.000         0.000
  Continuity Error (%) .....        -0.106
  
  
  **************************        Volume        Volume
  Flow Routing Continuity        hectare-m      10^6 ltr
  **************************     ---------     ---------
  Dry Weather Inflow .......         0.000         0.000
  Wet Weather Inflow .......         0.118         1.179
  Groundwater Inflow .......         0.000         0.000
  RDII Inflow ..............         0.000         0.000
  External Inflow ..........         0.000         0.000
  External Outflow .........         0.118         1.179
  Flooding Loss ............         0.000         0.000
  Evaporation Loss .........         0.000         0.000
  Exfiltration Loss ........         0.000         0.000
  Initial Stored Volume ....         0.000         0.000
  Final Stored Volume ......         0.000         0.000
  Continuity Error (%) .....        -0.058
  
  
  *************************
  Highest Continuity Errors
  *************************
  Node R0019373 (1.53%)
  Node R0019718 (-1.21%)
  
  
  ***************************
  Time-Step Critical Elements
  ***************************
  None
  
  
  ********************************
  Highest Flow Instability Indexes
  ********************************
  All links are stable.
  
  
  *********************************
  Most Frequent Nonconverging Nodes
  *********************************
  Convergence obtained at all time steps.
  
  
  *************************
  Routing Time Step Summary
  *************************
  Minimum Time Step           :     0.75 sec
  Average Time Step           :     1.00 sec
  Maximum Time Step           :     1.00 sec
  % of Time in Steady State   :     0.00
  Average Iterations per Step :     2.00
  % of Steps Not Converging   :     0.00
  Time Step Frequencies       :
      1.000 -  0.871 sec      :   100.00 %
      0.871 -  0.758 sec      :     0.00 %
      0.758 -  0.660 sec      :     0.00 %
      0.660 -  0.574 sec      :     0.00 %
      0.574 -  0.500 sec      :     0.00 %
  
  
  ***************************
  Subcatchment Runoff Summary
  ***************************
  
  ------------------------------------------------------------------------------------------------------------------------------
                            Total      Total      Total      Total     Imperv       Perv      Total       Total     Peak  Runoff
                           Precip      Runon       Evap      Infil     Runoff     Runoff     Runoff      Runoff   Runoff   Coeff
  Subcatchment                 mm         mm         mm         mm         mm         mm         mm    10^6 ltr      CMS
  ------------------------------------------------------------------------------------------------------------------------------
  EZG_368                   27.60       0.00       0.95      15.13      12.87       0.60      11.55        0.05     0.06   0.418
  EZG_392                   27.60       0.00       0.94      15.08      12.88       0.66      11.61        0.04     0.05   0.421
  EZG_352                   27.60       0.00       0.95      15.21      12.87       0.53      11.46        0.07     0.08   0.415
  EZG_372                   27.60       0.00       0.93      14.87      12.90       0.88      11.84        0.02     0.02   0.429
  EZG_416                   27.60       0.00       0.94      15.06      12.88       0.68      11.63        0.03     0.05   0.422
  EZG_388                   27.60       0.00       0.95      15.15      12.87       0.58      11.52        0.05     0.07   0.418
  EZG_394                   27.60       0.00       0.94      15.05      12.88       0.70      11.65        0.03     0.04   0.422
  EZG_400                   27.60       0.00       0.94      15.03      12.88       0.71      11.66        0.03     0.04   0.423
  EZG_390                   27.60       0.00       0.94      15.07      12.88       0.66      11.61        0.04     0.05   0.421
  EZG_350                   27.60       0.00       0.95      15.16      12.87       0.58      11.52        0.05     0.07   0.417
  EZG_370                   27.60       0.00       0.94      15.10      12.88       0.64      11.58        0.04     0.05   0.420
  EZG_398                   27.60       0.00       0.93      14.79      12.90       0.96      11.92        0.01     0.02   0.432
  EZG_382                   27.60       0.00       0.93      14.76      12.90       0.99      11.96        0.01     0.02   0.433
  EZG_374                   27.60       0.00       1.14      12.58      15.44       0.79      13.91        0.05     0.07   0.504
  EZG_412                   27.60       0.00       0.92      14.55      12.92       1.21      12.18        0.00     0.01   0.441
  EZG_344                   27.60       0.00       0.94      15.02      12.88       0.72      11.67        0.03     0.04   0.423
  EZG_376                   27.60       0.00       0.94      14.97      12.89       0.78      11.73        0.02     0.03   0.425
  EZG_356                   27.60       0.00       0.95      15.22      12.87       0.51      11.45        0.07     0.09   0.415
  EZG_386                   27.60       0.00       0.96      15.27      12.86       0.47      11.40        0.09     0.11   0.413
  EZG_380                   27.60       0.00       0.95      15.12      12.88       0.62      11.56        0.05     0.06   0.419
  EZG_378                   27.60       0.00       0.94      15.09      12.88       0.65      11.59        0.04     0.05   0.420
  EZG_414                   27.60       0.00       0.93      14.76      12.90       0.99      11.96        0.01     0.02   0.433
  EZG_402                   27.60       0.00       0.94      15.08      12.88       0.66      11.61        0.04     0.05   0.421
  EZG_358                   27.60       0.00       0.95      15.22      12.87       0.51      11.45        0.07     0.09   0.415
  EZG_364                   27.60       0.00       0.95      15.22      12.87       0.51      11.45        0.07     0.09   0.415
  EZG_410                   27.60       0.00       0.94      14.98      12.89       0.76      11.72        0.02     0.03   0.425
  EZG_366                   27.60       0.00       0.94      15.01      12.89       0.73      11.68        0.03     0.04   0.423
  EZG_18259                 27.60       0.00       0.94      15.01      12.89       0.73      11.69        0.03     0.04   0.423
  EZG_18258                 27.60       0.00       0.93      14.67      12.91       1.09      12.06        0.01     0.01   0.437
  EZG_346                   27.60       0.00       0.93      15.36      12.62       0.62      11.35        0.04     0.05   0.411
  EZG_348                   27.60       0.00       0.92      15.24      12.63       0.74      11.47        0.03     0.03   0.416
  
  
  ******************
  Node Depth Summary
  ******************
  
  ---------------------------------------------------------------------------------
                                 Average  Maximum  Maximum  Time of Max    Reported
                                   Depth    Depth      HGL   Occurrence   Max Depth
  Node                 Type       Meters   Meters   Meters  days hr:min      Meters
  ---------------------------------------------------------------------------------
  R0019466             JUNCTION     0.00     0.65    70.10     0  03:05        0.64
  R0019468             JUNCTION     0.00     0.57    69.88     0  03:05        0.57
  R0019831             JUNCTION     0.00     0.55    69.72     0  03:05        0.46
  R0019825             JUNCTION     0.00     0.77    69.61     0  03:05        0.71
  R0019843             JUNCTION     0.00     0.45    68.08     0  03:05        0.45
  R0019368             JUNCTION     0.01     0.69    67.48     0  03:06        0.67
  R0019369             JUNCTION     0.01     0.49    67.08     0  03:06        0.49
  R0019370             JUNCTION     0.00     0.41    66.31     0  03:06        0.41
  R0019345             JUNCTION     0.00     0.38    70.28     0  03:05        0.36
  R0019346             JUNCTION     0.00     0.30    70.10     0  03:05        0.30
  R0043600             JUNCTION     0.00     0.36    70.03     0  03:05        0.35
  R0019203             JUNCTION     0.00     0.40    69.94     0  03:05        0.39
  R0043594             JUNCTION     0.00     0.27    70.00     0  03:05        0.26
  R0021458             JUNCTION     0.00     0.33    69.98     0  03:05        0.33
  R0019202             JUNCTION     0.00     0.37    69.95     0  03:05        0.36
  R0019373             JUNCTION     0.00     0.43    70.10     0  03:05        0.42
  R0019254             JUNCTION     0.00     0.62    70.66     0  03:05        0.60
  R0019716             JUNCTION     0.00     0.43    69.44     0  03:06        0.43
  R0019946             JUNCTION     0.01     0.60    69.22     0  03:06        0.60
  R0013935             JUNCTION     0.00     0.43    69.26     0  03:05        0.42
  R0019939             JUNCTION     0.00     0.63    69.20     0  03:05        0.60
  R0019944             JUNCTION     0.00     0.37    68.65     0  03:06        0.37
  R0043703             JUNCTION     0.00     0.47    69.07     0  03:06        0.46
  R0019945             JUNCTION     0.00     0.47    68.87     0  03:06        0.47
  R0039621             JUNCTION     0.00     0.17    69.74     0  03:05        0.16
  R0019838             JUNCTION     0.00     0.27    69.73     0  03:05        0.27
  R0039606             JUNCTION     0.00     0.36    69.95     0  03:05        0.36
  R0019204             JUNCTION     0.00     0.00    69.91     0  00:00        0.00
  R0019205             JUNCTION     0.00     0.00    69.62     0  00:00        0.00
  R0019849             JUNCTION     0.00     0.62    69.14     0  03:05        0.59
  R0019371             JUNCTION     0.00     0.00    70.41     0  00:00        0.00
  R0019718             JUNCTION     0.01     0.48    69.90     0  03:05        0.48
  R0021442             JUNCTION     0.00     1.37    71.42     0  03:05        1.30
  R0019247             JUNCTION     0.00     0.59    70.47     0  03:05        0.56
  R0019719             JUNCTION     0.00     0.31    69.99     0  03:05        0.31
  R0019767             JUNCTION     0.00     0.44    65.17     0  03:06        0.43
  R0019768             JUNCTION     0.00     0.37    64.14     0  03:06        0.37
  R0021453             JUNCTION     0.00     0.11    70.06     0  03:05        0.11
  R0019839             JUNCTION     0.00     0.25    69.64     0  03:05        0.25
  R0019717             JUNCTION     0.00     0.42    69.76     0  03:05        0.42
  R0019252             JUNCTION     0.00     0.62    70.81     0  03:05        0.60
  R0019721             JUNCTION     0.00     0.26    70.13     0  03:05        0.26
  R0019942             JUNCTION     0.00     0.58    69.23     0  03:05        0.54
  R0019206             JUNCTION     0.00     0.00    69.07     0  00:00        0.00
  R0019840             JUNCTION     0.00     0.23    69.20     0  03:05        0.22
  R0043702             JUNCTION     0.00     0.34    69.04     0  03:05        0.34
  R0019723             JUNCTION     0.00     0.16    70.24     0  03:05        0.16
  R0019724             JUNCTION     0.00     0.09    70.25     0  03:05        0.09
  R0021433             JUNCTION     0.00     1.37    71.76     0  03:05        1.28
  R0021435             JUNCTION     0.00     1.47    71.65     0  03:05        1.38
  R0019769             OUTFALL      0.00     0.37    63.75     0  03:06        0.37
  
  
  *******************
  Node Inflow Summary
  *******************
  
  -------------------------------------------------------------------------------------------------
                                  Maximum  Maximum                  Lateral       Total        Flow
                                  Lateral    Total  Time of Max      Inflow      Inflow     Balance
                                   Inflow   Inflow   Occurrence      Volume      Volume       Error
  Node                 Type           CMS      CMS  days hr:min    10^6 ltr    10^6 ltr     Percent
  -------------------------------------------------------------------------------------------------
  R0019466             JUNCTION     0.062    0.082     0  03:02      0.0477      0.0833       0.137
  R0019468             JUNCTION     0.038    0.105     0  03:05       0.028       0.111      -0.037
  R0019831             JUNCTION     0.050    0.050     0  03:05      0.0376      0.0376       0.114
  R0019825             JUNCTION     0.050    0.092     0  03:04      0.0377      0.0753       0.229
  R0019843             JUNCTION     0.000    1.207     0  03:06           0        1.18      -0.004
  R0019368             JUNCTION     0.000    1.211     0  03:06           0        1.18      -0.008
  R0019369             JUNCTION     0.000    1.289     0  03:06           0        1.18       0.010
  R0019370             JUNCTION     0.000    1.210     0  03:07           0        1.18       0.001
  R0019345             JUNCTION     0.000    0.091     0  03:05           0      0.0736      -0.026
  R0019346             JUNCTION     0.008    0.150     0  03:05     0.00486       0.124       0.017
  R0043600             JUNCTION     0.000    0.165     0  03:05           0       0.143      -0.078
  R0019203             JUNCTION     0.015    0.380     0  03:05      0.0106       0.326       0.002
  R0043594             JUNCTION     0.085    0.124     0  03:05      0.0677      0.0973      -0.035
  R0021458             JUNCTION     0.068    0.178     0  03:05      0.0529        0.15      -0.011
  R0019202             JUNCTION     0.023    0.208     0  03:05       0.016       0.172      -0.309
  R0019373             JUNCTION     0.054    0.054     0  03:05      0.0415      0.0417       1.552
  R0019254             JUNCTION     0.045    0.094     0  03:05      0.0339      0.0736       0.057
  R0019716             JUNCTION     0.067    0.727     0  03:05      0.0525       0.664      -0.018
  R0019946             JUNCTION     0.000    0.730     0  03:06           0       0.664       0.005
  R0013935             JUNCTION     0.043    0.043     0  03:05      0.0323      0.0323       0.074
  R0019939             JUNCTION     0.017    0.059     0  03:05      0.0118      0.0441      -0.060
  R0019944             JUNCTION     0.040    0.896     0  03:06        0.03        0.85       0.010
  R0043703             JUNCTION     0.049    0.766     0  03:06      0.0367         0.7       0.015
  R0019945             JUNCTION     0.000    0.876     0  03:06           0        0.82      -0.013
  R0039621             JUNCTION     0.000    0.005     0  03:01           0     0.00101       0.823
  R0019838             JUNCTION     0.091    0.091     0  03:05      0.0733      0.0743      -0.012
  R0039606             JUNCTION     0.000    0.156     0  03:05           0        0.15       0.060
  R0019204             JUNCTION     0.000    0.000     0  00:00           0           0       0.000 ltr
  R0019205             JUNCTION     0.000    0.000     0  00:00           0           0       0.000 ltr
  R0019849             JUNCTION     0.000    0.137     0  03:05           0       0.119       0.019
  R0019371             JUNCTION     0.000    0.000     0  00:00           0           0       0.000 ltr
  R0019718             JUNCTION     0.059    0.421     0  03:05       0.045       0.371      -1.195
  R0021442             JUNCTION     0.067    0.140     0  03:05      0.0527        0.12       0.060
  R0019247             JUNCTION     0.032    0.164     0  03:05      0.0234       0.143       0.047
  R0019719             JUNCTION     0.034    0.178     0  03:05      0.0246       0.149      -0.011
  R0019767             JUNCTION     0.000    1.202     0  03:06           0        1.18      -0.007
  R0019768             JUNCTION     0.000    1.202     0  03:06           0        1.18       0.011
  R0021453             JUNCTION     0.040    0.040     0  03:05      0.0295      0.0295      -0.077
  R0019839             JUNCTION     0.090    0.173     0  03:05      0.0725       0.146      -0.002
  R0019717             JUNCTION     0.111    0.679     0  03:05       0.091       0.615       0.592
  R0019252             JUNCTION     0.052    0.052     0  03:05      0.0397      0.0397      -0.073
  R0019721             JUNCTION     0.015    0.061     0  03:05      0.0104      0.0456       0.029
  R0019942             JUNCTION     0.000    0.086     0  03:05           0      0.0751      -0.285
  R0019206             JUNCTION     0.000    0.000     0  00:00           0           0       0.000 ltr
  R0019840             JUNCTION     0.000    0.274     0  03:05           0       0.257       0.004
  R0043702             JUNCTION     0.090    0.356     0  03:05      0.0726        0.33      -0.002
  R0019723             JUNCTION     0.038    0.048     0  03:05      0.0278      0.0352      -0.069
  R0019724             JUNCTION     0.011    0.011     0  03:05     0.00738     0.00738      -0.067
  R0021433             JUNCTION     0.054    0.054     0  03:05      0.0413      0.0413      -0.234
  R0021435             JUNCTION     0.035    0.081     0  03:05      0.0255      0.0669       0.005
  R0019769             OUTFALL      0.000    1.207     0  03:06           0        1.18       0.000
  
  
  **********************
  Node Surcharge Summary
  **********************
  
  Surcharging occurs when water rises above the top of the highest conduit.
  ---------------------------------------------------------------------
                                               Max. Height   Min. Depth
                                   Hours       Above Crown    Below Rim
  Node                 Type      Surcharged         Meters       Meters
  ---------------------------------------------------------------------
  R0019466             JUNCTION        0.10          0.346        2.164
  R0019468             JUNCTION        0.09          0.272        2.158
  R0019831             JUNCTION        0.03          0.247        1.113
  R0019825             JUNCTION        0.07          0.471        0.729
  R0019345             JUNCTION        0.03          0.082        1.668
  R0019373             JUNCTION        0.04          0.127        2.373
  R0019254             JUNCTION        0.06          0.317        1.513
  R0013935             JUNCTION        0.03          0.132        1.188
  R0019939             JUNCTION        0.09          0.335        1.285
  R0019849             JUNCTION        0.11          0.321        1.609
  R0021442             JUNCTION        0.12          1.067        0.683
  R0019247             JUNCTION        0.04          0.192        1.668
  R0019252             JUNCTION        0.03          0.315        1.325
  R0019942             JUNCTION        0.07          0.284        1.366
  R0021433             JUNCTION        0.07          1.065        0.785
  R0021435             JUNCTION        0.10          1.166        0.644
  
  
  *********************
  Node Flooding Summary
  *********************
  
  No nodes were flooded.
  
  
  ***********************
  Outfall Loading Summary
  ***********************
  
  -----------------------------------------------------------
                         Flow       Avg       Max       Total
                         Freq      Flow      Flow      Volume
  Outfall Node           Pcnt       CMS       CMS    10^6 ltr
  -----------------------------------------------------------
  R0019769               6.84     0.063     1.207       1.179
  -----------------------------------------------------------
  System                 6.84     0.063     1.207       1.179
  
  
  ********************
  Link Flow Summary
  ********************
  
  -----------------------------------------------------------------------------
                                 Maximum  Time of Max   Maximum    Max/    Max/
                                  |Flow|   Occurrence   |Veloc|    Full    Full
  Link                 Type          CMS  days hr:min     m/sec    Flow   Depth
  -----------------------------------------------------------------------------
  H0014431             CONDUIT     0.070     0  03:03      1.00    1.30    1.00
  H0014433             CONDUIT     0.044     0  03:04      0.72    0.56    1.00
  H0014352             CONDUIT     1.211     0  03:06      2.93    0.50    0.63
  H0014373             CONDUIT     1.210     0  03:07      3.85    0.56    0.50
  H0017981             CONDUIT     0.092     0  03:05      1.30    2.59    1.00
  H0017755             CONDUIT     0.163     0  03:05      1.43    1.32    0.85
  H0017791             CONDUIT     0.112     0  03:05      0.63    0.16    0.33
  H0017357             CONDUIT     0.046     0  03:05      0.65    0.73    0.99
  H0018216             CONDUIT     0.091     0  03:05      1.29    1.66    1.00
  H0016792             CONDUIT     0.730     0  03:06      1.93    0.42    0.58
  H0019507             CONDUIT     0.042     0  03:05      0.70    0.58    1.00
  H0019998             CONDUIT     0.898     0  03:06      3.19    0.36    0.46
  H0019576             CONDUIT     0.771     0  03:06      2.31    0.52    0.52
  H0020087             CONDUIT     0.007     0  03:06      0.14    0.03    0.44
  H0020211             CONDUIT     0.741     0  03:06      1.92    1.85    0.59
  H0018982             CONDUIT     0.156     0  03:05      0.80    0.25    0.38
  H0018753             CONDUIT     0.036     0  03:02      0.62    0.51    1.00
  H0018845             CONDUIT     0.000     0  00:00      0.00    0.00    0.00
  H0018863             CONDUIT     0.054     0  03:05      0.77    1.28    1.00
  H0019156             CONDUIT     0.000     0  00:00      0.00    0.00    0.00
  H0018929             CONDUIT     0.380     0  03:05      1.23    0.33    0.49
  H0018440             CONDUIT     0.136     0  03:05      1.92    2.43    1.00
  H0018456             CONDUIT     0.149     0  03:05      1.44    0.90    0.77
  H0018968             CONDUIT     1.202     0  03:06      4.38    0.46    0.45
  H0022036             CONDUIT     0.039     0  03:05      0.48    0.03    0.19
  H0021806             CONDUIT     0.165     0  03:05      1.31    1.46    1.00
  H0022111             CONDUIT     0.084     0  03:05      0.81    0.60    0.53
  H0021440             CONDUIT     0.684     0  03:06      2.31    0.44    0.48
  H0021704             CONDUIT     0.429     0  03:06      1.45    0.82    0.48
  H0020521             CONDUIT     0.049     0  03:05      0.70    1.00    1.00
  H0020755             CONDUIT     0.054     0  03:05      0.61    0.59    0.71
  H0020530             CONDUIT     1.289     0  03:06      2.96    1.10    0.65
  H0020618             CONDUIT     0.876     0  03:06      2.99    0.54    0.47
  H0021163             CONDUIT     0.086     0  03:05      1.22    1.44    1.00
  H0020497             CONDUIT     0.000     0  00:00      0.00    0.00    0.76
  H0024325             CONDUIT     0.170     0  03:05      1.83    0.51    0.48
  H0023585             CONDUIT     0.355     0  03:05      2.48    0.82    0.69
  H0024098             CONDUIT     0.137     0  03:05      1.94    1.60    1.00
  H0024235             CONDUIT     0.175     0  03:05      1.45    0.72    0.60
  H0024282             CONDUIT     0.000     0  00:00      0.00    0.00    0.00
  H0024308             CONDUIT     1.207     0  03:06      4.90    0.35    0.41
  H0024498             CONDUIT     0.105     0  03:05      1.48    1.62    1.00
  H0026990             CONDUIT     0.046     0  03:05      0.72    0.35    0.53
  H0041650             CONDUIT     0.205     0  03:05      0.80    0.24    0.43
  H0041011             CONDUIT     0.086     0  03:05      1.22    0.85    1.00
  H0045103             CONDUIT     0.161     0  03:06      0.74    0.20    0.40
  H0045104             CONDUIT     1.202     0  03:06      4.11    0.43    0.47
  H0045105             CONDUIT     0.011     0  03:05      0.37    0.18    0.43
  H0045106             CONDUIT     0.274     0  03:05      2.37    0.37    0.57
  H0045107             CONDUIT     0.047     0  03:05      0.72    0.77    1.00
  H0045108             CONDUIT     0.078     0  03:05      1.10    1.40    1.00
  
  
  ***************************
  Flow Classification Summary
  ***************************
  
  -------------------------------------------------------------------------------------
                      Adjusted    ---------- Fraction of Time in Flow Class ---------- 
                       /Actual         Up    Down  Sub   Sup   Up    Down  Norm  Inlet 
  Conduit               Length    Dry  Dry   Dry   Crit  Crit  Crit  Crit  Ltd   Ctrl  
  -------------------------------------------------------------------------------------
  H0014431                1.00   0.03  0.00  0.00  0.97  0.00  0.00  0.00  0.96  0.00
  H0014433                1.00   0.03  0.00  0.00  0.97  0.00  0.00  0.00  0.97  0.00
  H0014352                1.00   0.03  0.00  0.00  0.92  0.05  0.00  0.00  0.97  0.00
  H0014373                1.00   0.03  0.00  0.00  0.91  0.06  0.00  0.00  0.89  0.00
  H0017981                1.00   0.03  0.00  0.00  0.00  0.00  0.00  0.97  0.00  0.00
  H0017755                1.00   0.03  0.00  0.00  0.00  0.00  0.00  0.97  0.00  0.00
  H0017791                1.00   0.03  0.00  0.00  0.97  0.00  0.00  0.00  0.97  0.00
  H0017357                1.00   0.03  0.97  0.00  0.00  0.00  0.00  0.00  0.96  0.00
  H0018216                1.00   0.03  0.90  0.00  0.07  0.00  0.00  0.00  0.97  0.00
  H0016792                1.00   0.03  0.89  0.00  0.07  0.00  0.00  0.00  0.97  0.00
  H0019507                1.00   0.03  0.00  0.00  0.97  0.00  0.00  0.00  0.97  0.00
  H0019998                1.00   0.03  0.00  0.00  0.91  0.06  0.00  0.00  0.08  0.00
  H0019576                1.00   0.03  0.00  0.00  0.93  0.04  0.00  0.00  0.07  0.00
  H0020087                1.00   0.03  0.96  0.00  0.01  0.00  0.00  0.00  0.96  0.00
  H0020211                1.00   0.03  0.00  0.00  0.97  0.00  0.00  0.00  0.89  0.00
  H0018982                1.00   0.03  0.00  0.00  0.97  0.00  0.00  0.00  0.91  0.00
  H0018753                1.00   0.03  0.00  0.00  0.97  0.00  0.00  0.00  0.97  0.00
  H0018845                1.00   1.00  0.00  0.00  0.00  0.00  0.00  0.00  0.00  0.00
  H0018863                1.00   0.03  0.00  0.00  0.97  0.00  0.00  0.00  0.96  0.00
  H0019156                1.00   1.00  0.00  0.00  0.00  0.00  0.00  0.00  0.00  0.00
  H0018929                1.00   0.03  0.90  0.00  0.07  0.00  0.00  0.00  0.97  0.00
  H0018440                1.00   0.03  0.00  0.00  0.97  0.00  0.00  0.00  0.96  0.00
  H0018456                1.00   0.03  0.00  0.00  0.97  0.00  0.00  0.00  0.96  0.00
  H0018968                1.00   0.03  0.00  0.00  0.90  0.07  0.00  0.00  0.91  0.00
  H0022036                1.00   0.03  0.00  0.00  0.02  0.01  0.00  0.93  0.01  0.00
  H0021806                1.00   0.03  0.90  0.00  0.07  0.00  0.00  0.00  0.93  0.00
  H0022111                1.00   0.03  0.00  0.00  0.97  0.00  0.00  0.00  0.00  0.00
  H0021440                1.00   0.03  0.00  0.00  0.92  0.05  0.00  0.00  0.02  0.00
  H0021704                1.00   0.03  0.00  0.00  0.00  0.00  0.00  0.97  0.00  0.00
  H0020521                1.00   0.03  0.00  0.00  0.97  0.00  0.00  0.00  0.97  0.00
  H0020755                1.00   0.03  0.91  0.00  0.06  0.00  0.00  0.00  0.97  0.00
  H0020530                1.00   0.03  0.00  0.00  0.92  0.04  0.00  0.00  0.01  0.00
  H0020618                1.00   0.03  0.00  0.00  0.92  0.05  0.00  0.00  0.90  0.00
  H0021163                1.00   0.03  0.00  0.00  0.96  0.01  0.00  0.00  0.91  0.00
  H0020497                1.20   0.03  0.97  0.00  0.00  0.00  0.00  0.00  0.00  0.00
  H0024325                1.00   0.03  0.00  0.00  0.92  0.05  0.00  0.00  0.91  0.00
  H0023585                1.00   0.03  0.00  0.00  0.00  0.00  0.00  0.97  0.00  0.00
  H0024098                1.00   0.03  0.90  0.00  0.07  0.00  0.00  0.00  0.96  0.00
  H0024235                1.00   0.03  0.00  0.00  0.00  0.00  0.00  0.97  0.00  0.00
  H0024282                1.00   1.00  0.00  0.00  0.00  0.00  0.00  0.00  0.00  0.00
  H0024308                1.00   0.03  0.00  0.00  0.89  0.08  0.00  0.00  0.03  0.00
  H0024498                1.00   0.03  0.00  0.00  0.00  0.00  0.00  0.97  0.00  0.00
  H0026990                1.00   0.03  0.00  0.00  0.97  0.00  0.00  0.00  0.97  0.00
  H0041650                1.00   0.93  0.01  0.00  0.06  0.00  0.00  0.00  0.96  0.00
  H0041011                1.00   0.03  0.00  0.00  0.97  0.00  0.00  0.00  0.96  0.00
  H0045103                1.00   0.03  0.00  0.00  0.97  0.00  0.00  0.00  0.92  0.00
  H0045104                1.00   0.03  0.00  0.00  0.90  0.07  0.00  0.00  0.07  0.00
  H0045105                1.00   0.03  0.00  0.00  0.97  0.00  0.00  0.00  0.97  0.00
  H0045106                1.00   0.03  0.00  0.00  0.92  0.05  0.00  0.00  0.97  0.00
  H0045107                1.00   0.03  0.00  0.00  0.97  0.00  0.00  0.00  0.97  0.00
  H0045108                1.00   0.03  0.00  0.00  0.97  0.00  0.00  0.00  0.97  0.00
  
  
  *************************
  Conduit Surcharge Summary
  *************************
  
  ----------------------------------------------------------------------------
                                                           Hours        Hours 
                         --------- Hours Full --------   Above Full   Capacity
  Conduit                Both Ends  Upstream  Dnstream   Normal Flow   Limited
  ----------------------------------------------------------------------------
  H0014431                    0.09      0.10      0.09      0.11         0.09
  H0014433                    0.03      0.03      0.07      0.01         0.01
  H0017981                    0.01      0.03      0.01      0.12         0.01
  H0017755                    0.01      0.01      0.01      0.06         0.01
  H0017357                    0.01      0.01      0.04      0.01         0.01
  H0018216                    0.03      0.06      0.03      0.08         0.05
  H0019507                    0.03      0.03      0.09      0.01         0.01
  H0020211                    0.01      0.01      0.01      0.10         0.01
  H0018753                    0.04      0.04      0.10      0.01         0.01
  H0018863                    0.09      0.09      0.11      0.03         0.03
  H0018440                    0.08      0.12      0.08      0.14         0.10
  H0021806                    0.01      0.04      0.01      0.07         0.03
  H0020521                    0.03      0.03      0.06      0.01         0.01
  H0020530                    0.01      0.01      0.01      0.02         0.01
  H0021163                    0.06      0.07      0.07      0.08         0.05
  H0024098                    0.11      0.11      0.13      0.07         0.07
  H0024498                    0.01      0.09      0.01      0.12         0.06
  H0041011                    0.07      0.07      0.11      0.01         0.01
  H0045107                    0.07      0.07      0.10      0.01         0.01
  H0045108                    0.10      0.10      0.12      0.06         0.06
  

  Analysis begun on:  Fri Mar 22 15:56:32 2024
  Analysis ended on:  Fri Mar 22 15:56:42 2024
  Total elapsed time: 00:00:10