
  EPA STORM WATER MANAGEMENT MODEL - VERSION 5.2 (Build 5.2.4)
  PYSWMM TOOLKIT API - VERSION v1.0 (2023-11-27)
  ------------------------------------------------------------

  Gievenbeck_e2_T20D180 
  
  ****************
  Analysis Options
  ****************
  Flow Units ............... CMS
  Process Models:
    Rainfall/Runoff ........ YES
    RDII ................... NO
    Snowmelt ............... NO
    Groundwater ............ NO
    Flow Routing ........... YES
    Ponding Allowed ........ NO
    Water Quality .......... NO
  Infiltration Method ...... HORTON
  Flow Routing Method ...... DYNWAVE
  Surcharge Method ......... SLOT
  Starting Date ............ 01/01/2024 00:00:00
  Ending Date .............. 01/04/2024 04:00:00
  Antecedent Dry Days ...... 14.0
  Report Time Step ......... 00:01:00
  Wet Time Step ............ 00:01:00
  Dry Time Step ............ 00:01:00
  Routing Time Step ........ 1.00 sec
  Variable Time Step ....... YES
  Maximum Trials ........... 8
  Number of Threads ........ 1
  Head Tolerance ........... 0.001500 m
  
  
  **************************        Volume         Depth
  Runoff Quantity Continuity     hectare-m            mm
  **************************     ---------       -------
  Total Precipitation ......         0.440        43.470
  Evaporation Loss .........         0.010         0.954
  Infiltration Loss ........         0.200        19.759
  Surface Runoff ...........         0.231        22.819
  Final Storage ............         0.000         0.000
  Continuity Error (%) .....        -0.144
  
  
  **************************        Volume        Volume
  Flow Routing Continuity        hectare-m      10^6 ltr
  **************************     ---------     ---------
  Dry Weather Inflow .......         0.000         0.000
  Wet Weather Inflow .......         0.231         2.310
  Groundwater Inflow .......         0.000         0.000
  RDII Inflow ..............         0.000         0.000
  External Inflow ..........         0.000         0.000
  External Outflow .........         0.227         2.267
  Flooding Loss ............         0.004         0.042
  Evaporation Loss .........         0.000         0.000
  Exfiltration Loss ........         0.000         0.000
  Initial Stored Volume ....         0.000         0.000
  Final Stored Volume ......         0.000         0.000
  Continuity Error (%) .....         0.012
  
  
  *************************
  Highest Continuity Errors
  *************************
  Node R0019206 (12.37%)
  Node R0019373 (1.20%)
  
  
  ***************************
  Time-Step Critical Elements
  ***************************
  None
  
  
  ********************************
  Highest Flow Instability Indexes
  ********************************
  All links are stable.
  
  
  *********************************
  Most Frequent Nonconverging Nodes
  *********************************
  Convergence obtained at all time steps.
  
  
  *************************
  Routing Time Step Summary
  *************************
  Minimum Time Step           :     0.04 sec
  Average Time Step           :     1.00 sec
  Maximum Time Step           :     1.00 sec
  % of Time in Steady State   :     0.00
  Average Iterations per Step :     2.00
  % of Steps Not Converging   :     0.00
  Time Step Frequencies       :
      1.000 -  0.871 sec      :   100.00 %
      0.871 -  0.758 sec      :     0.00 %
      0.758 -  0.660 sec      :     0.00 %
      0.660 -  0.574 sec      :     0.00 %
      0.574 -  0.500 sec      :     0.00 %
  
  
  ***************************
  Subcatchment Runoff Summary
  ***************************
  
  ------------------------------------------------------------------------------------------------------------------------------
                            Total      Total      Total      Total     Imperv       Perv      Total       Total     Peak  Runoff
                           Precip      Runon       Evap      Infil     Runoff     Runoff     Runoff      Runoff   Runoff   Coeff
  Subcatchment                 mm         mm         mm         mm         mm         mm         mm    10^6 ltr      CMS
  ------------------------------------------------------------------------------------------------------------------------------
  EZG_368                   43.47       0.00       0.95      19.90      20.83       4.98      22.68        0.09     0.13   0.522
  EZG_392                   43.47       0.00       0.94      19.78      20.83       5.11      22.81        0.07     0.10   0.525
  EZG_352                   43.47       0.00       0.95      20.10      20.82       4.78      22.47        0.13     0.17   0.517
  EZG_372                   43.47       0.00       0.93      19.36      20.85       5.54      23.26        0.03     0.05   0.535
  EZG_416                   43.47       0.00       0.94      19.72      20.83       5.16      22.87        0.07     0.09   0.526
  EZG_388                   43.47       0.00       0.95      19.96      20.82       4.92      22.62        0.10     0.14   0.520
  EZG_394                   43.47       0.00       0.94      19.70      20.84       5.19      22.90        0.06     0.09   0.527
  EZG_400                   43.47       0.00       0.94      19.66      20.84       5.23      22.94        0.06     0.08   0.528
  EZG_390                   43.47       0.00       0.94      19.76      20.83       5.12      22.83        0.07     0.10   0.525
  EZG_350                   43.47       0.00       0.95      19.96      20.82       4.92      22.62        0.10     0.14   0.520
  EZG_370                   43.47       0.00       0.95      19.83      20.83       5.05      22.76        0.08     0.11   0.524
  EZG_398                   43.47       0.00       0.93      19.22      20.86       5.68      23.41        0.02     0.04   0.539
  EZG_382                   43.47       0.00       0.93      19.17      20.86       5.73      23.47        0.02     0.03   0.540
  EZG_374                   43.47       0.00       1.14      16.18      24.98       4.98      26.21        0.10     0.13   0.603
  EZG_412                   43.47       0.00       0.92      18.86      20.88       6.07      23.81        0.01     0.02   0.548
  EZG_344                   43.47       0.00       0.94      19.65      20.84       5.24      22.95        0.06     0.08   0.528
  EZG_376                   43.47       0.00       0.94      19.54      20.84       5.35      23.07        0.05     0.07   0.531
  EZG_356                   43.47       0.00       0.96      20.14      20.81       4.73      22.42        0.14     0.18   0.516
  EZG_386                   43.47       0.00       0.96      20.27      20.81       4.60      22.29        0.18     0.22   0.513
  EZG_380                   43.47       0.00       0.95      19.87      20.83       5.01      22.71        0.09     0.12   0.522
  EZG_378                   43.47       0.00       0.95      19.80      20.83       5.08      22.78        0.08     0.11   0.524
  EZG_414                   43.47       0.00       0.93      19.17      20.86       5.74      23.47        0.02     0.03   0.540
  EZG_402                   43.47       0.00       0.94      19.78      20.83       5.11      22.81        0.07     0.10   0.525
  EZG_358                   43.47       0.00       0.95      20.14      20.81       4.74      22.43        0.14     0.18   0.516
  EZG_364                   43.47       0.00       0.95      20.14      20.81       4.74      22.43        0.14     0.18   0.516
  EZG_410                   43.47       0.00       0.94      19.56      20.84       5.33      23.04        0.05     0.07   0.530
  EZG_366                   43.47       0.00       0.94      19.62      20.84       5.26      22.98        0.06     0.08   0.529
  EZG_18259                 43.47       0.00       0.94      19.62      20.84       5.27      22.98        0.05     0.08   0.529
  EZG_18258                 43.47       0.00       0.93      19.02      20.87       5.89      23.63        0.01     0.02   0.544
  EZG_346                   43.47       0.00       0.93      20.20      20.41       5.05      22.40        0.08     0.11   0.515
  EZG_348                   43.47       0.00       0.92      19.95      20.42       5.31      22.67        0.05     0.07   0.522
  
  
  ******************
  Node Depth Summary
  ******************
  
  ---------------------------------------------------------------------------------
                                 Average  Maximum  Maximum  Time of Max    Reported
                                   Depth    Depth      HGL   Occurrence   Max Depth
  Node                 Type       Meters   Meters   Meters  days hr:min      Meters
  ---------------------------------------------------------------------------------
  R0019466             JUNCTION     0.01     1.68    71.13     0  03:05        1.64
  R0019468             JUNCTION     0.01     1.62    70.93     0  03:05        1.54
  R0019831             JUNCTION     0.00     1.66    70.83     0  03:04        1.66
  R0019825             JUNCTION     0.01     1.50    70.34     0  03:03        1.50
  R0019843             JUNCTION     0.01     1.46    69.09     0  03:05        1.18
  R0019368             JUNCTION     0.01     1.55    68.34     0  03:05        1.36
  R0019369             JUNCTION     0.01     0.77    67.36     0  03:06        0.76
  R0019370             JUNCTION     0.01     0.61    66.51     0  03:06        0.61
  R0019345             JUNCTION     0.01     1.18    71.08     0  03:05        1.17
  R0019346             JUNCTION     0.00     0.96    70.76     0  03:05        0.95
  R0043600             JUNCTION     0.00     0.63    70.30     0  03:05        0.62
  R0019203             JUNCTION     0.00     0.63    70.17     0  03:05        0.63
  R0043594             JUNCTION     0.00     0.50    70.23     0  03:05        0.49
  R0021458             JUNCTION     0.00     0.56    70.21     0  03:06        0.56
  R0019202             JUNCTION     0.00     0.60    70.18     0  03:05        0.60
  R0019373             JUNCTION     0.00     1.36    71.03     0  03:05        1.34
  R0019254             JUNCTION     0.00     1.95    71.99     0  03:05        1.95
  R0019716             JUNCTION     0.01     0.79    69.80     0  03:05        0.78
  R0019946             JUNCTION     0.01     1.00    69.62     0  03:05        0.99
  R0013935             JUNCTION     0.00     1.62    70.45     0  03:04        1.62
  R0019939             JUNCTION     0.00     1.58    70.15     0  03:05        1.57
  R0019944             JUNCTION     0.01     0.81    69.09     0  03:05        0.81
  R0043703             JUNCTION     0.01     0.75    69.35     0  03:06        0.74
  R0019945             JUNCTION     0.01     0.79    69.19     0  03:06        0.78
  R0039621             JUNCTION     0.00     1.06    70.63     0  03:05        0.86
  R0019838             JUNCTION     0.00     1.17    70.63     0  03:05        1.00
  R0039606             JUNCTION     0.00     0.59    70.18     0  03:05        0.59
  R0019204             JUNCTION     0.00     0.00    69.91     0  00:00        0.00
  R0019205             JUNCTION     0.00     0.00    69.62     0  00:00        0.00
  R0019849             JUNCTION     0.00     1.29    69.81     0  03:05        1.27
  R0019371             JUNCTION     0.00     0.00    70.41     0  00:00        0.00
  R0019718             JUNCTION     0.01     0.73    70.15     0  03:05        0.71
  R0021442             JUNCTION     0.01     2.05    72.10     0  03:02        2.05
  R0019247             JUNCTION     0.01     1.15    71.03     0  03:05        1.14
  R0019719             JUNCTION     0.00     0.72    70.40     0  03:05        0.72
  R0019767             JUNCTION     0.01     0.65    65.38     0  03:06        0.64
  R0019768             JUNCTION     0.01     0.54    64.31     0  03:06        0.53
  R0021453             JUNCTION     0.00     0.28    70.23     0  03:05        0.25
  R0019839             JUNCTION     0.00     1.21    70.60     0  03:05        1.01
  R0019717             JUNCTION     0.01     0.67    70.01     0  03:05        0.66
  R0019252             JUNCTION     0.00     1.94    72.13     0  03:03        1.94
  R0019721             JUNCTION     0.00     1.04    70.91     0  03:05        0.99
  R0019942             JUNCTION     0.00     1.26    69.91     0  03:05        1.24
  R0019206             JUNCTION     0.00     0.01    69.08     0  03:05        0.00
  R0019840             JUNCTION     0.00     1.34    70.31     0  03:05        1.10
  R0043702             JUNCTION     0.01     1.52    70.22     0  03:05        1.29
  R0019723             JUNCTION     0.00     0.93    71.01     0  03:05        0.91
  R0019724             JUNCTION     0.00     0.87    71.03     0  03:05        0.85
  R0021433             JUNCTION     0.01     2.15    72.54     0  03:02        2.15
  R0021435             JUNCTION     0.01     2.11    72.29     0  03:02        2.11
  R0019769             OUTFALL      0.01     0.54    63.92     0  03:06        0.53
  
  
  *******************
  Node Inflow Summary
  *******************
  
  -------------------------------------------------------------------------------------------------
                                  Maximum  Maximum                  Lateral       Total        Flow
                                  Lateral    Total  Time of Max      Inflow      Inflow     Balance
                                   Inflow   Inflow   Occurrence      Volume      Volume       Error
  Node                 Type           CMS      CMS  days hr:min    10^6 ltr    10^6 ltr     Percent
  -------------------------------------------------------------------------------------------------
  R0019466             JUNCTION     0.126    0.126     0  03:05      0.0937       0.146       0.061
  R0019468             JUNCTION     0.079    0.158     0  03:04       0.055       0.192      -0.028
  R0019831             JUNCTION     0.102    0.102     0  03:05      0.0739      0.0739       0.099
  R0019825             JUNCTION     0.102    0.202     0  03:05      0.0741       0.148       0.146
  R0019843             JUNCTION     0.000    2.304     0  03:05           0        2.27      -0.020
  R0019368             JUNCTION     0.000    2.238     0  03:05           0        2.27      -0.027
  R0019369             JUNCTION     0.000    2.259     0  03:05           0        2.27      -0.018
  R0019370             JUNCTION     0.000    2.232     0  03:06           0        2.27       0.001
  R0019345             JUNCTION     0.000    0.158     0  03:04           0       0.141       0.026
  R0019346             JUNCTION     0.016    0.288     0  03:05      0.0095        0.24       0.005
  R0043600             JUNCTION     0.000    0.215     0  03:05           0       0.252      -0.092
  R0019203             JUNCTION     0.033    0.682     0  03:05      0.0207       0.638      -0.009
  R0043594             JUNCTION     0.171    0.224     0  03:04       0.133       0.191      -0.007
  R0021458             JUNCTION     0.138    0.305     0  03:05       0.104       0.295      -0.000
  R0019202             JUNCTION     0.048    0.449     0  03:05      0.0315       0.363      -0.333
  R0019373             JUNCTION     0.112    0.151     0  03:05      0.0816      0.0901       1.219
  R0019254             JUNCTION     0.093    0.164     0  03:03      0.0666       0.141       0.038
  R0019716             JUNCTION     0.137    1.426     0  03:05       0.103         1.3      -0.011
  R0019946             JUNCTION     0.000    1.377     0  03:05           0         1.3       0.002
  R0013935             JUNCTION     0.089    0.089     0  03:05      0.0635      0.0635       0.076
  R0019939             JUNCTION     0.037    0.120     0  03:05      0.0232      0.0866      -0.078
  R0019944             JUNCTION     0.084    1.714     0  03:05      0.0591        1.65       0.023
  R0043703             JUNCTION     0.100    1.455     0  03:05      0.0722        1.37       0.008
  R0019945             JUNCTION     0.000    1.660     0  03:05           0        1.59      -0.009
  R0039621             JUNCTION     0.000    0.078     0  03:04           0     0.00348      -3.754
  R0019838             JUNCTION     0.183    0.183     0  03:05       0.144       0.147      -0.062
  R0039606             JUNCTION     0.000    0.297     0  03:06           0       0.295       0.032
  R0019204             JUNCTION     0.000    0.000     0  00:00           0           0       0.000 ltr
  R0019205             JUNCTION     0.000    0.000     0  00:00           0           0       0.000 ltr
  R0019849             JUNCTION     0.000    0.212     0  03:05           0       0.221       0.001
  R0019371             JUNCTION     0.000    0.000     0  00:00           0           0       0.000 ltr
  R0019718             JUNCTION     0.120    0.775     0  03:05      0.0884       0.726      -0.519
  R0021442             JUNCTION     0.134    0.206     0  03:05      0.0994       0.213       0.035
  R0019247             JUNCTION     0.067    0.216     0  03:05       0.046       0.253       0.107
  R0019719             JUNCTION     0.070    0.351     0  03:05      0.0484       0.288       0.552
  R0019767             JUNCTION     0.000    2.241     0  03:06           0        2.27      -0.004
  R0019768             JUNCTION     0.000    2.256     0  03:06           0        2.27       0.006
  R0021453             JUNCTION     0.083    0.083     0  03:05       0.058       0.058      -0.056
  R0019839             JUNCTION     0.181    0.322     0  03:05       0.142       0.286       0.029
  R0019717             JUNCTION     0.221    1.307     0  03:05       0.178        1.19       0.157
  R0019252             JUNCTION     0.107    0.107     0  03:05      0.0781      0.0781      -0.024
  R0019721             JUNCTION     0.033    0.127     0  03:05      0.0204      0.0897       0.130
  R0019942             JUNCTION     0.000    0.123     0  03:03           0       0.134      -0.250
  R0019206             JUNCTION     0.000    0.004     0  03:05           0    7.64e-06       0.945 ltr
  R0019840             JUNCTION     0.000    0.449     0  03:05           0       0.478       0.002
  R0043702             JUNCTION     0.181    0.591     0  03:04       0.142        0.62       0.356
  R0019723             JUNCTION     0.078    0.098     0  03:05      0.0546      0.0691      -0.217
  R0019724             JUNCTION     0.024    0.028     0  03:04      0.0145      0.0145      -0.326
  R0021433             JUNCTION     0.111    0.111     0  03:05      0.0815      0.0815      -0.100
  R0021435             JUNCTION     0.073    0.144     0  03:05      0.0504       0.127      -0.092
  R0019769             OUTFALL      0.000    2.267     0  03:06           0        2.27       0.000
  
  
  **********************
  Node Surcharge Summary
  **********************
  
  Surcharging occurs when water rises above the top of the highest conduit.
  ---------------------------------------------------------------------
                                               Max. Height   Min. Depth
                                   Hours       Above Crown    Below Rim
  Node                 Type      Surcharged         Meters       Meters
  ---------------------------------------------------------------------
  R0019466             JUNCTION        0.18          1.379        1.131
  R0019468             JUNCTION        0.18          1.315        1.115
  R0019831             JUNCTION        0.12          1.360        0.000
  R0019825             JUNCTION        0.16          1.200        0.000
  R0019843             JUNCTION        0.04          0.564        2.056
  R0019368             JUNCTION        0.08          0.649        0.401
  R0019345             JUNCTION        0.12          0.882        0.868
  R0019346             JUNCTION        0.08          0.559        1.181
  R0043600             JUNCTION        0.10          0.230        2.350
  R0019373             JUNCTION        0.12          1.065        1.435
  R0019254             JUNCTION        0.14          1.647        0.183
  R0019946             JUNCTION        0.05          0.099        1.421
  R0013935             JUNCTION        0.13          1.320        0.000
  R0019939             JUNCTION        0.18          1.280        0.340
  R0039621             JUNCTION        0.02          0.558        0.502
  R0019838             JUNCTION        0.03          0.665        0.635
  R0019849             JUNCTION        0.20          0.989        0.941
  R0021442             JUNCTION        0.20          1.750        0.000
  R0019247             JUNCTION        0.13          0.746        1.114
  R0019719             JUNCTION        0.04          0.224        1.576
  R0019839             JUNCTION        0.04          0.710        0.940
  R0019252             JUNCTION        0.11          1.640        0.000
  R0019721             JUNCTION        0.08          0.636        0.924
  R0019942             JUNCTION        0.17          0.964        0.686
  R0019840             JUNCTION        0.06          0.845        1.725
  R0043702             JUNCTION        0.08          1.022        1.888
  R0019723             JUNCTION        0.04          0.534        0.786
  R0019724             JUNCTION        0.05          0.572        0.878
  R0021433             JUNCTION        0.15          1.850        0.000
  R0021435             JUNCTION        0.18          1.810        0.000
  
  
  *********************
  Node Flooding Summary
  *********************
  
  Flooding refers to all water that overflows a node, whether it ponds or not.
  --------------------------------------------------------------------------
                                                             Total   Maximum
                                 Maximum   Time of Max       Flood    Ponded
                        Hours       Rate    Occurrence      Volume     Depth
  Node                 Flooded       CMS   days hr:min    10^6 ltr    Meters
  --------------------------------------------------------------------------
  R0019831                0.01     0.002      0  03:05       0.000     0.000
  R0019825                0.06     0.105      0  03:05       0.014     0.000
  R0013935                0.01     0.006      0  03:05       0.000     0.000
  R0021442                0.06     0.057      0  03:05       0.007     0.000
  R0019252                0.03     0.051      0  03:05       0.004     0.000
  R0021433                0.05     0.040      0  03:05       0.005     0.000
  R0021435                0.07     0.072      0  03:05       0.013     0.000
  
  
  ***********************
  Outfall Loading Summary
  ***********************
  
  -----------------------------------------------------------
                         Flow       Avg       Max       Total
                         Freq      Flow      Flow      Volume
  Outfall Node           Pcnt       CMS       CMS    10^6 ltr
  -----------------------------------------------------------
  R0019769               7.03     0.118     2.267       2.267
  -----------------------------------------------------------
  System                 7.03     0.118     2.267       2.267
  
  
  ********************
  Link Flow Summary
  ********************
  
  -----------------------------------------------------------------------------
                                 Maximum  Time of Max   Maximum    Max/    Max/
                                  |Flow|   Occurrence   |Veloc|    Full    Full
  Link                 Type          CMS  days hr:min     m/sec    Flow   Depth
  -----------------------------------------------------------------------------
  H0014431             CONDUIT     0.082     0  03:04      1.16    1.52    1.00
  H0014433             CONDUIT     0.100     0  03:05      1.42    1.28    1.00
  H0014352             CONDUIT     2.238     0  03:05      3.52    0.92    1.00
  H0014373             CONDUIT     2.232     0  03:06      4.33    1.03    0.76
  H0017981             CONDUIT     0.153     0  03:04      2.17    4.34    1.00
  H0017755             CONDUIT     0.213     0  03:04      1.70    1.73    1.00
  H0017791             CONDUIT     0.200     0  03:05      0.70    0.29    0.59
  H0017357             CONDUIT     0.149     0  03:05      2.10    2.38    1.00
  H0018216             CONDUIT     0.158     0  03:04      2.24    2.89    1.00
  H0016792             CONDUIT     1.377     0  03:05      2.19    0.79    0.99
  H0019507             CONDUIT     0.083     0  03:04      1.18    1.16    1.00
  H0019998             CONDUIT     1.767     0  03:06      3.40    0.71    1.00
  H0019576             CONDUIT     1.456     0  03:05      2.58    0.98    0.85
  H0020087             CONDUIT     0.078     0  03:04      0.40    0.34    1.00
  H0020211             CONDUIT     1.376     0  03:05      2.19    3.43    0.97
  H0018982             CONDUIT     0.297     0  03:06      0.83    0.48    0.64
  H0018753             CONDUIT     0.048     0  03:05      0.68    0.68    1.00
  H0018845             CONDUIT     0.000     0  00:00      0.00    0.00    0.00
  H0018863             CONDUIT     0.118     0  03:05      1.66    2.76    1.00
  H0019156             CONDUIT     0.000     0  00:00      0.00    0.00    0.00
  H0018929             CONDUIT     0.678     0  03:06      1.39    0.59    0.75
  H0018440             CONDUIT     0.161     0  03:02      2.27    2.88    1.00
  H0018456             CONDUIT     0.288     0  03:05      2.30    1.75    1.00
  H0018968             CONDUIT     2.256     0  03:06      5.09    0.87    0.66
  H0022036             CONDUIT     0.079     0  03:05      0.54    0.06    0.41
  H0021806             CONDUIT     0.215     0  03:05      1.71    1.90    1.00
  H0022111             CONDUIT     0.167     0  03:05      0.91    1.19    1.00
  H0021440             CONDUIT     1.306     0  03:05      2.51    0.84    0.81
  H0021704             CONDUIT     0.773     0  03:05      1.63    1.47    0.75
  H0020521             CONDUIT     0.081     0  03:03      1.15    1.65    1.00
  H0020755             CONDUIT     0.128     0  03:05      1.02    1.41    1.00
  H0020530             CONDUIT     2.259     0  03:05      3.55    1.93    1.00
  H0020618             CONDUIT     1.663     0  03:06      3.34    1.03    0.89
  H0021163             CONDUIT     0.123     0  03:03      1.74    2.05    1.00
  H0020497             CONDUIT     0.004     0  03:05      0.05    0.01    1.00
  H0024325             CONDUIT     0.309     0  03:05      1.87    0.92    1.00
  H0023585             CONDUIT     0.594     0  03:05      3.03    1.37    1.00
  H0024098             CONDUIT     0.211     0  03:05      2.98    2.46    1.00
  H0024235             CONDUIT     0.352     0  03:05      1.79    1.44    1.00
  H0024282             CONDUIT     0.000     0  00:00      0.00    0.00    0.01
  H0024308             CONDUIT     2.267     0  03:06      5.74    0.66    0.60
  H0024498             CONDUIT     0.152     0  03:04      2.14    2.35    1.00
  H0026990             CONDUIT     0.096     0  03:05      0.82    0.73    1.00
  H0041650             CONDUIT     0.453     0  03:06      1.01    0.53    0.68
  H0041011             CONDUIT     0.117     0  03:03      1.66    1.16    1.00
  H0045103             CONDUIT     0.324     0  03:06      0.91    0.41    0.66
  H0045104             CONDUIT     2.241     0  03:06      4.74    0.79    0.70
  H0045105             CONDUIT     0.026     0  03:05      0.43    0.45    1.00
  H0045106             CONDUIT     0.437     0  03:05      2.42    0.59    1.00
  H0045107             CONDUIT     0.072     0  03:06      1.01    1.18    1.00
  H0045108             CONDUIT     0.090     0  03:07      1.27    1.62    1.00
  
  
  ***************************
  Flow Classification Summary
  ***************************
  
  -------------------------------------------------------------------------------------
                      Adjusted    ---------- Fraction of Time in Flow Class ---------- 
                       /Actual         Up    Down  Sub   Sup   Up    Down  Norm  Inlet 
  Conduit               Length    Dry  Dry   Dry   Crit  Crit  Crit  Crit  Ltd   Ctrl  
  -------------------------------------------------------------------------------------
  H0014431                1.00   0.03  0.00  0.00  0.97  0.00  0.00  0.00  0.96  0.00
  H0014433                1.00   0.03  0.00  0.00  0.97  0.00  0.00  0.00  0.97  0.00
  H0014352                1.00   0.03  0.00  0.00  0.92  0.05  0.00  0.00  0.97  0.00
  H0014373                1.00   0.03  0.00  0.00  0.91  0.06  0.00  0.00  0.89  0.00
  H0017981                1.00   0.03  0.00  0.00  0.00  0.00  0.00  0.97  0.00  0.00
  H0017755                1.00   0.03  0.00  0.00  0.00  0.00  0.00  0.97  0.00  0.00
  H0017791                1.00   0.03  0.00  0.00  0.97  0.00  0.00  0.00  0.97  0.00
  H0017357                1.00   0.03  0.97  0.00  0.00  0.00  0.00  0.00  0.96  0.00
  H0018216                1.00   0.03  0.90  0.00  0.07  0.00  0.00  0.00  0.97  0.00
  H0016792                1.00   0.03  0.89  0.00  0.08  0.00  0.00  0.00  0.96  0.00
  H0019507                1.00   0.03  0.00  0.00  0.97  0.00  0.00  0.00  0.97  0.00
  H0019998                1.00   0.03  0.00  0.00  0.91  0.06  0.00  0.00  0.08  0.00
  H0019576                1.00   0.03  0.00  0.00  0.93  0.04  0.00  0.00  0.07  0.00
  H0020087                1.00   0.03  0.95  0.00  0.02  0.00  0.00  0.00  0.96  0.00
  H0020211                1.00   0.03  0.00  0.00  0.97  0.00  0.00  0.00  0.89  0.00
  H0018982                1.00   0.03  0.00  0.00  0.97  0.00  0.00  0.00  0.91  0.00
  H0018753                1.00   0.03  0.00  0.00  0.97  0.00  0.00  0.00  0.97  0.00
  H0018845                1.00   1.00  0.00  0.00  0.00  0.00  0.00  0.00  0.00  0.00
  H0018863                1.00   0.03  0.00  0.00  0.97  0.00  0.00  0.00  0.96  0.00
  H0019156                1.00   1.00  0.00  0.00  0.00  0.00  0.00  0.00  0.00  0.00
  H0018929                1.00   0.03  0.90  0.00  0.07  0.00  0.00  0.00  0.97  0.00
  H0018440                1.00   0.03  0.00  0.00  0.97  0.00  0.00  0.00  0.96  0.00
  H0018456                1.00   0.03  0.00  0.00  0.97  0.00  0.00  0.00  0.96  0.00
  H0018968                1.00   0.03  0.89  0.00  0.01  0.07  0.00  0.00  0.91  0.00
  H0022036                1.00   0.03  0.00  0.00  0.04  0.00  0.00  0.93  0.02  0.00
  H0021806                1.00   0.03  0.90  0.00  0.07  0.00  0.00  0.00  0.93  0.00
  H0022111                1.00   0.03  0.00  0.00  0.97  0.00  0.00  0.00  0.00  0.00
  H0021440                1.00   0.03  0.00  0.00  0.92  0.05  0.00  0.00  0.02  0.00
  H0021704                1.00   0.03  0.00  0.00  0.00  0.00  0.00  0.97  0.00  0.00
  H0020521                1.00   0.03  0.00  0.00  0.97  0.00  0.00  0.00  0.97  0.00
  H0020755                1.00   0.03  0.90  0.00  0.07  0.00  0.00  0.00  0.97  0.00
  H0020530                1.00   0.03  0.00  0.00  0.93  0.04  0.00  0.00  0.01  0.00
  H0020618                1.00   0.03  0.00  0.00  0.91  0.06  0.00  0.00  0.91  0.00
  H0021163                1.00   0.03  0.00  0.00  0.96  0.01  0.00  0.00  0.91  0.00
  H0020497                1.20   0.03  0.97  0.00  0.00  0.00  0.00  0.00  0.96  0.00
  H0024325                1.00   0.03  0.00  0.00  0.92  0.05  0.00  0.00  0.91  0.00
  H0023585                1.00   0.03  0.00  0.00  0.00  0.00  0.00  0.97  0.00  0.00
  H0024098                1.00   0.03  0.90  0.00  0.07  0.00  0.00  0.00  0.96  0.00
  H0024235                1.00   0.03  0.00  0.00  0.00  0.00  0.00  0.97  0.00  0.00
  H0024282                1.00   1.00  0.00  0.00  0.00  0.00  0.00  0.00  0.00  0.00
  H0024308                1.00   0.03  0.00  0.00  0.89  0.08  0.00  0.00  0.01  0.00
  H0024498                1.00   0.03  0.00  0.00  0.00  0.00  0.00  0.97  0.00  0.00
  H0026990                1.00   0.03  0.00  0.00  0.97  0.00  0.00  0.00  0.97  0.00
  H0041650                1.00   0.93  0.01  0.00  0.06  0.00  0.00  0.00  0.95  0.00
  H0041011                1.00   0.03  0.00  0.00  0.97  0.00  0.00  0.00  0.96  0.00
  H0045103                1.00   0.03  0.00  0.00  0.97  0.00  0.00  0.00  0.92  0.00
  H0045104                1.00   0.03  0.00  0.00  0.90  0.07  0.00  0.00  0.08  0.00
  H0045105                1.00   0.03  0.00  0.00  0.97  0.00  0.00  0.00  0.97  0.00
  H0045106                1.00   0.03  0.90  0.00  0.02  0.05  0.00  0.00  0.97  0.00
  H0045107                1.00   0.03  0.00  0.00  0.97  0.00  0.00  0.00  0.97  0.00
  H0045108                1.00   0.03  0.00  0.00  0.97  0.00  0.00  0.00  0.97  0.00
  
  
  *************************
  Conduit Surcharge Summary
  *************************
  
  ----------------------------------------------------------------------------
                                                           Hours        Hours 
                         --------- Hours Full --------   Above Full   Capacity
  Conduit                Both Ends  Upstream  Dnstream   Normal Flow   Limited
  ----------------------------------------------------------------------------
  H0014431                    0.18      0.18      0.18      0.19         0.16
  H0014433                    0.12      0.12      0.16      0.04         0.04
  H0014352                    0.04      0.04      0.08      0.01         0.01
  H0014373                    0.01      0.01      0.01      0.03         0.01
  H0017981                    0.09      0.12      0.09      0.21         0.11
  H0017755                    0.08      0.10      0.08      0.14         0.10
  H0017357                    0.04      0.04      0.12      0.08         0.01
  H0018216                    0.12      0.14      0.12      0.16         0.13
  H0016792                    0.01      0.01      0.05      0.01         0.01
  H0019507                    0.13      0.13      0.18      0.03         0.03
  H0019998                    0.01      0.01      0.04      0.01         0.01
  H0020087                    0.02      0.02      0.03      0.01         0.01
  H0020211                    0.01      0.05      0.01      0.19         0.01
  H0018753                    0.12      0.12      0.18      0.01         0.01
  H0018863                    0.18      0.18      0.20      0.12         0.11
  H0018440                    0.15      0.20      0.15      0.24         0.18
  H0018456                    0.07      0.08      0.07      0.10         0.08
  H0021806                    0.10      0.13      0.10      0.14         0.12
  H0022111                    0.03      0.03      0.04      0.03         0.02
  H0021704                    0.01      0.01      0.01      0.10         0.01
  H0020521                    0.11      0.11      0.14      0.10         0.09
  H0020755                    0.08      0.08      0.08      0.03         0.04
  H0020530                    0.01      0.08      0.01      0.13         0.07
  H0020618                    0.01      0.01      0.01      0.02         0.01
  H0021163                    0.15      0.16      0.17      0.15         0.14
  H0020497                    0.01      0.01     72.91      0.01         0.01
  H0024325                    0.04      0.04      0.06      0.01         0.01
  H0023585                    0.06      0.08      0.06      0.09         0.08
  H0024098                    0.20      0.20      0.23      0.16         0.15
  H0024235                    0.03      0.04      0.03      0.07         0.04
  H0024498                    0.07      0.18      0.07      0.21         0.14
  H0026990                    0.04      0.04      0.08      0.01         0.01
  H0041011                    0.17      0.17      0.20      0.05         0.04
  H0045105                    0.05      0.05      0.06      0.01         0.01
  H0045106                    0.06      0.06      0.08      0.01         0.01
  H0045107                    0.15      0.15      0.18      0.06         0.06
  H0045108                    0.18      0.18      0.20      0.14         0.14
  

  Analysis begun on:  Fri Mar 22 15:55:51 2024
  Analysis ended on:  Fri Mar 22 15:56:00 2024
  Total elapsed time: 00:00:09