
  EPA STORM WATER MANAGEMENT MODEL - VERSION 5.2 (Build 5.2.4)
  PYSWMM TOOLKIT API - VERSION v1.0 (2023-11-27)
  ------------------------------------------------------------

  Gievenbeck_2023-07-24 04 25 00_hN9 69 
  
  ****************
  Analysis Options
  ****************
  Flow Units ............... CMS
  Process Models:
    Rainfall/Runoff ........ YES
    RDII ................... NO
    Snowmelt ............... NO
    Groundwater ............ NO
    Flow Routing ........... YES
    Ponding Allowed ........ NO
    Water Quality .......... NO
  Infiltration Method ...... HORTON
  Flow Routing Method ...... DYNWAVE
  Surcharge Method ......... SLOT
  Starting Date ............ 01/01/2024 00:00:00
  Ending Date .............. 01/04/2024 04:00:00
  Antecedent Dry Days ...... 14.0
  Report Time Step ......... 00:01:00
  Wet Time Step ............ 00:01:00
  Dry Time Step ............ 00:01:00
  Routing Time Step ........ 1.00 sec
  Variable Time Step ....... YES
  Maximum Trials ........... 8
  Number of Threads ........ 1
  Head Tolerance ........... 0.001500 m
  
  
  **************************        Volume         Depth
  Runoff Quantity Continuity     hectare-m            mm
  **************************     ---------       -------
  Total Precipitation ......         0.098         9.690
  Evaporation Loss .........         0.010         0.949
  Infiltration Loss ........         0.055         5.404
  Surface Runoff ...........         0.034         3.340
  Final Storage ............         0.000         0.000
  Continuity Error (%) .....        -0.039
  
  
  **************************        Volume        Volume
  Flow Routing Continuity        hectare-m      10^6 ltr
  **************************     ---------     ---------
  Dry Weather Inflow .......         0.000         0.000
  Wet Weather Inflow .......         0.034         0.338
  Groundwater Inflow .......         0.000         0.000
  RDII Inflow ..............         0.000         0.000
  External Inflow ..........         0.000         0.000
  External Outflow .........         0.034         0.338
  Flooding Loss ............         0.000         0.000
  Evaporation Loss .........         0.000         0.000
  Exfiltration Loss ........         0.000         0.000
  Initial Stored Volume ....         0.000         0.000
  Final Stored Volume ......         0.000         0.000
  Continuity Error (%) .....         0.000
  
  
  ***************************
  Time-Step Critical Elements
  ***************************
  None
  
  
  ********************************
  Highest Flow Instability Indexes
  ********************************
  All links are stable.
  
  
  *********************************
  Most Frequent Nonconverging Nodes
  *********************************
  Convergence obtained at all time steps.
  
  
  *************************
  Routing Time Step Summary
  *************************
  Minimum Time Step           :     0.50 sec
  Average Time Step           :     1.00 sec
  Maximum Time Step           :     1.00 sec
  % of Time in Steady State   :     0.00
  Average Iterations per Step :     2.00
  % of Steps Not Converging   :     0.00
  Time Step Frequencies       :
      1.000 -  0.871 sec      :   100.00 %
      0.871 -  0.758 sec      :     0.00 %
      0.758 -  0.660 sec      :     0.00 %
      0.660 -  0.574 sec      :     0.00 %
      0.574 -  0.500 sec      :     0.00 %
  
  
  ***************************
  Subcatchment Runoff Summary
  ***************************
  
  ------------------------------------------------------------------------------------------------------------------------------
                            Total      Total      Total      Total     Imperv       Perv      Total       Total     Peak  Runoff
                           Precip      Runon       Evap      Infil     Runoff     Runoff     Runoff      Runoff   Runoff   Coeff
  Subcatchment                 mm         mm         mm         mm         mm         mm         mm    10^6 ltr      CMS
  ------------------------------------------------------------------------------------------------------------------------------
  EZG_368                    9.69       0.00       0.94       5.43       3.90       0.00       3.32        0.01     0.01   0.343
  EZG_392                    9.69       0.00       0.94       5.43       3.91       0.00       3.32        0.01     0.01   0.343
  EZG_352                    9.69       0.00       0.95       5.43       3.90       0.00       3.31        0.02     0.01   0.342
  EZG_372                    9.69       0.00       0.93       5.43       3.92       0.00       3.33        0.00     0.00   0.344
  EZG_416                    9.69       0.00       0.94       5.43       3.91       0.00       3.32        0.01     0.01   0.343
  EZG_388                    9.69       0.00       0.95       5.43       3.90       0.00       3.32        0.02     0.01   0.342
  EZG_394                    9.69       0.00       0.94       5.43       3.91       0.00       3.32        0.01     0.01   0.343
  EZG_400                    9.69       0.00       0.94       5.43       3.91       0.00       3.32        0.01     0.01   0.343
  EZG_390                    9.69       0.00       0.94       5.43       3.91       0.00       3.32        0.01     0.01   0.343
  EZG_350                    9.69       0.00       0.95       5.43       3.90       0.00       3.32        0.02     0.01   0.342
  EZG_370                    9.69       0.00       0.94       5.43       3.91       0.00       3.32        0.01     0.01   0.343
  EZG_398                    9.69       0.00       0.93       5.43       3.92       0.00       3.33        0.00     0.00   0.344
  EZG_382                    9.69       0.00       0.93       5.43       3.92       0.00       3.33        0.00     0.00   0.344
  EZG_374                    9.69       0.00       1.14       4.58       4.68       0.00       3.98        0.02     0.01   0.411
  EZG_412                    9.69       0.00       0.92       5.43       3.93       0.00       3.34        0.00     0.00   0.345
  EZG_344                    9.69       0.00       0.94       5.43       3.91       0.00       3.32        0.01     0.01   0.343
  EZG_376                    9.69       0.00       0.94       5.43       3.91       0.00       3.33        0.01     0.00   0.343
  EZG_356                    9.69       0.00       0.95       5.43       3.90       0.00       3.31        0.02     0.01   0.342
  EZG_386                    9.69       0.00       0.95       5.43       3.89       0.00       3.31        0.03     0.02   0.342
  EZG_380                    9.69       0.00       0.94       5.43       3.91       0.00       3.32        0.01     0.01   0.343
  EZG_378                    9.69       0.00       0.94       5.43       3.91       0.00       3.32        0.01     0.01   0.343
  EZG_414                    9.69       0.00       0.93       5.43       3.92       0.00       3.33        0.00     0.00   0.344
  EZG_402                    9.69       0.00       0.94       5.43       3.91       0.00       3.32        0.01     0.01   0.343
  EZG_358                    9.69       0.00       0.95       5.43       3.90       0.00       3.31        0.02     0.01   0.342
  EZG_364                    9.69       0.00       0.95       5.43       3.90       0.00       3.31        0.02     0.01   0.342
  EZG_410                    9.69       0.00       0.94       5.43       3.91       0.00       3.33        0.01     0.01   0.343
  EZG_366                    9.69       0.00       0.94       5.43       3.91       0.00       3.33        0.01     0.01   0.343
  EZG_18259                  9.69       0.00       0.94       5.43       3.91       0.00       3.33        0.01     0.01   0.343
  EZG_18258                  9.69       0.00       0.92       5.43       3.93       0.00       3.34        0.00     0.00   0.344
  EZG_346                    9.69       0.00       0.92       5.52       3.83       0.00       3.25        0.01     0.01   0.336
  EZG_348                    9.69       0.00       0.92       5.52       3.84       0.00       3.26        0.01     0.01   0.336
  
  
  ******************
  Node Depth Summary
  ******************
  
  ---------------------------------------------------------------------------------
                                 Average  Maximum  Maximum  Time of Max    Reported
                                   Depth    Depth      HGL   Occurrence   Max Depth
  Node                 Type       Meters   Meters   Meters  days hr:min      Meters
  ---------------------------------------------------------------------------------
  R0019466             JUNCTION     0.00     0.11    69.56     0  02:37        0.11
  R0019468             JUNCTION     0.00     0.12    69.43     0  02:38        0.12
  R0019831             JUNCTION     0.00     0.06    69.23     0  02:35        0.06
  R0019825             JUNCTION     0.00     0.10    68.94     0  02:36        0.10
  R0019843             JUNCTION     0.00     0.18    67.81     0  02:41        0.18
  R0019368             JUNCTION     0.00     0.26    67.05     0  02:41        0.26
  R0019369             JUNCTION     0.00     0.19    66.78     0  02:41        0.19
  R0019370             JUNCTION     0.00     0.17    66.07     0  02:41        0.17
  R0019345             JUNCTION     0.00     0.12    70.02     0  02:38        0.12
  R0019346             JUNCTION     0.00     0.10    69.90     0  02:38        0.10
  R0043600             JUNCTION     0.00     0.12    69.79     0  02:39        0.12
  R0019203             JUNCTION     0.00     0.14    69.68     0  02:40        0.14
  R0043594             JUNCTION     0.00     0.10    69.83     0  02:40        0.10
  R0021458             JUNCTION     0.00     0.13    69.78     0  02:40        0.13
  R0019202             JUNCTION     0.00     0.12    69.70     0  02:40        0.12
  R0019373             JUNCTION     0.00     0.07    69.74     0  02:36        0.07
  R0019254             JUNCTION     0.00     0.10    70.14     0  02:37        0.10
  R0019716             JUNCTION     0.00     0.16    69.17     0  02:40        0.16
  R0019946             JUNCTION     0.00     0.25    68.87     0  02:40        0.25
  R0013935             JUNCTION     0.00     0.06    68.89     0  02:35        0.06
  R0019939             JUNCTION     0.00     0.09    68.66     0  02:36        0.09
  R0019944             JUNCTION     0.00     0.15    68.43     0  02:41        0.15
  R0043703             JUNCTION     0.00     0.18    68.78     0  02:40        0.18
  R0019945             JUNCTION     0.00     0.18    68.58     0  02:41        0.18
  R0039621             JUNCTION     0.00     0.00    69.57     0  00:00        0.00
  R0019838             JUNCTION     0.00     0.11    69.57     0  02:40        0.11
  R0039606             JUNCTION     0.00     0.12    69.71     0  02:40        0.12
  R0019204             JUNCTION     0.00     0.00    69.91     0  00:00        0.00
  R0019205             JUNCTION     0.00     0.00    69.62     0  00:00        0.00
  R0019849             JUNCTION     0.00     0.11    68.63     0  02:37        0.11
  R0019371             JUNCTION     0.00     0.00    70.41     0  00:00        0.00
  R0019718             JUNCTION     0.00     0.20    69.62     0  02:40        0.20
  R0021442             JUNCTION     0.00     0.13    70.18     0  02:38        0.13
  R0019247             JUNCTION     0.00     0.13    70.01     0  02:38        0.13
  R0019719             JUNCTION     0.00     0.11    69.79     0  02:39        0.11
  R0019767             JUNCTION     0.00     0.18    64.91     0  02:42        0.18
  R0019768             JUNCTION     0.00     0.15    63.92     0  02:42        0.15
  R0021453             JUNCTION     0.00     0.04    69.99     0  02:35        0.04
  R0019839             JUNCTION     0.00     0.10    69.49     0  02:40        0.10
  R0019717             JUNCTION     0.00     0.16    69.50     0  02:40        0.16
  R0019252             JUNCTION     0.00     0.08    70.27     0  02:36        0.08
  R0019721             JUNCTION     0.00     0.08    69.95     0  02:37        0.08
  R0019942             JUNCTION     0.00     0.08    68.73     0  02:37        0.08
  R0019206             JUNCTION     0.00     0.00    69.07     0  00:00        0.00
  R0019840             JUNCTION     0.00     0.09    69.06     0  02:40        0.09
  R0043702             JUNCTION     0.00     0.13    68.83     0  02:40        0.13
  R0019723             JUNCTION     0.00     0.06    70.14     0  02:35        0.06
  R0019724             JUNCTION     0.00     0.03    70.19     0  02:35        0.03
  R0021433             JUNCTION     0.00     0.07    70.46     0  02:36        0.07
  R0021435             JUNCTION     0.00     0.10    70.28     0  02:37        0.10
  R0019769             OUTFALL      0.00     0.15    63.53     0  02:42        0.15
  
  
  *******************
  Node Inflow Summary
  *******************
  
  -------------------------------------------------------------------------------------------------
                                  Maximum  Maximum                  Lateral       Total        Flow
                                  Lateral    Total  Time of Max      Inflow      Inflow     Balance
                                   Inflow   Inflow   Occurrence      Volume      Volume       Error
  Node                 Type           CMS      CMS  days hr:min    10^6 ltr    10^6 ltr     Percent
  -------------------------------------------------------------------------------------------------
  R0019466             JUNCTION     0.009    0.017     0  02:36      0.0137      0.0256      -0.046
  R0019468             JUNCTION     0.006    0.022     0  02:36     0.00796      0.0336       0.045
  R0019831             JUNCTION     0.007    0.007     0  02:35      0.0108      0.0108      -0.118
  R0019825             JUNCTION     0.007    0.015     0  02:35      0.0108      0.0216      -0.012
  R0019843             JUNCTION     0.000    0.209     0  02:40           0       0.338      -0.020
  R0019368             JUNCTION     0.000    0.208     0  02:41           0       0.338       0.002
  R0019369             JUNCTION     0.000    0.207     0  02:41           0       0.338       0.001
  R0019370             JUNCTION     0.000    0.208     0  02:41           0       0.338       0.006
  R0019345             JUNCTION     0.000    0.014     0  02:37           0      0.0211       0.152
  R0019346             JUNCTION     0.001    0.023     0  02:37     0.00133      0.0353       0.052
  R0043600             JUNCTION     0.000    0.026     0  02:39           0      0.0409       0.171
  R0019203             JUNCTION     0.002    0.058     0  02:40     0.00295      0.0915      -0.033
  R0043594             JUNCTION     0.012    0.018     0  02:35      0.0196       0.028      -0.170
  R0021458             JUNCTION     0.010    0.027     0  02:39      0.0152      0.0433      -0.033
  R0019202             JUNCTION     0.003    0.030     0  02:40     0.00451      0.0477      -0.025
  R0019373             JUNCTION     0.008    0.008     0  02:35      0.0119      0.0119      -0.057
  R0019254             JUNCTION     0.007    0.014     0  02:35     0.00968      0.0211      -0.088
  R0019716             JUNCTION     0.010    0.118     0  02:40      0.0151       0.188      -0.050
  R0019946             JUNCTION     0.000    0.117     0  02:40           0       0.188       0.057
  R0013935             JUNCTION     0.006    0.006     0  02:35     0.00922     0.00922      -0.116
  R0019939             JUNCTION     0.003    0.009     0  02:35      0.0033      0.0125      -0.035
  R0019944             JUNCTION     0.006    0.149     0  02:41     0.00856       0.241      -0.001
  R0043703             JUNCTION     0.007    0.123     0  02:40      0.0105       0.199      -0.001
  R0019945             JUNCTION     0.000    0.145     0  02:40           0       0.233       0.004
  R0039621             JUNCTION     0.000    0.000     0  00:00           0           0       0.000 ltr
  R0019838             JUNCTION     0.013    0.013     0  02:40      0.0212      0.0212      -0.004
  R0039606             JUNCTION     0.000    0.027     0  02:40           0      0.0433       0.167
  R0019204             JUNCTION     0.000    0.000     0  00:00           0           0       0.000 ltr
  R0019205             JUNCTION     0.000    0.000     0  00:00           0           0       0.000 ltr
  R0019849             JUNCTION     0.000    0.023     0  02:37           0      0.0341       0.011
  R0019371             JUNCTION     0.000    0.000     0  00:00           0           0       0.000 ltr
  R0019718             JUNCTION     0.009    0.066     0  02:40      0.0129       0.104       0.025
  R0021442             JUNCTION     0.009    0.022     0  02:37      0.0151      0.0342      -0.037
  R0019247             JUNCTION     0.005    0.026     0  02:37     0.00663      0.0408      -0.130
  R0019719             JUNCTION     0.005    0.028     0  02:38     0.00699      0.0422      -0.015
  R0019767             JUNCTION     0.000    0.207     0  02:41           0       0.338      -0.001
  R0019768             JUNCTION     0.000    0.207     0  02:42           0       0.338       0.014
  R0021453             JUNCTION     0.006    0.006     0  02:35     0.00841     0.00841       0.167
  R0019839             JUNCTION     0.013    0.026     0  02:40       0.021      0.0422      -0.043
  R0019717             JUNCTION     0.016    0.109     0  02:40      0.0264       0.173       0.003
  R0019252             JUNCTION     0.008    0.008     0  02:35      0.0114      0.0114      -0.124
  R0019721             JUNCTION     0.002    0.009     0  02:35      0.0029      0.0129       0.009
  R0019942             JUNCTION     0.000    0.014     0  02:36           0      0.0216       0.066
  R0019206             JUNCTION     0.000    0.000     0  00:00           0           0       0.000 ltr
  R0019840             JUNCTION     0.000    0.048     0  02:40           0      0.0758       0.025
  R0043702             JUNCTION     0.013    0.061     0  02:40       0.021      0.0968      -0.006
  R0019723             JUNCTION     0.006    0.007     0  02:35      0.0079     0.00995      -0.158
  R0019724             JUNCTION     0.002    0.002     0  02:35     0.00204     0.00204      -0.161
  R0021433             JUNCTION     0.008    0.008     0  02:35      0.0118      0.0118      -0.126
  R0021435             JUNCTION     0.005    0.013     0  02:35     0.00725      0.0191       0.051
  R0019769             OUTFALL      0.000    0.207     0  02:42           0       0.338       0.000
  
  
  **********************
  Node Surcharge Summary
  **********************
  
  No nodes were surcharged.
  
  
  *********************
  Node Flooding Summary
  *********************
  
  No nodes were flooded.
  
  
  ***********************
  Outfall Loading Summary
  ***********************
  
  -----------------------------------------------------------
                         Flow       Avg       Max       Total
                         Freq      Flow      Flow      Volume
  Outfall Node           Pcnt       CMS       CMS    10^6 ltr
  -----------------------------------------------------------
  R0019769               6.17     0.020     0.207       0.338
  -----------------------------------------------------------
  System                 6.17     0.020     0.207       0.338
  
  
  ********************
  Link Flow Summary
  ********************
  
  -----------------------------------------------------------------------------
                                 Maximum  Time of Max   Maximum    Max/    Max/
                                  |Flow|   Occurrence   |Veloc|    Full    Full
  Link                 Type          CMS  days hr:min     m/sec    Flow   Depth
  -----------------------------------------------------------------------------
  H0014431             CONDUIT     0.017     0  02:37      0.66    0.31    0.39
  H0014433             CONDUIT     0.007     0  02:35      0.47    0.09    0.27
  H0014352             CONDUIT     0.208     0  02:41      1.77    0.09    0.24
  H0014373             CONDUIT     0.208     0  02:41      2.33    0.10    0.20
  H0017981             CONDUIT     0.014     0  02:38      0.65    0.39    0.34
  H0017755             CONDUIT     0.026     0  02:40      0.85    0.21    0.30
  H0017791             CONDUIT     0.018     0  02:40      0.38    0.03    0.13
  H0017357             CONDUIT     0.000     0  00:00      0.00    0.00    0.11
  H0018216             CONDUIT     0.014     0  02:37      0.60    0.25    0.37
  H0016792             CONDUIT     0.117     0  02:40      1.07    0.07    0.23
  H0019507             CONDUIT     0.006     0  02:35      0.46    0.09    0.25
  H0019998             CONDUIT     0.149     0  02:41      1.89    0.06    0.18
  H0019576             CONDUIT     0.123     0  02:41      1.37    0.08    0.20
  H0020087             CONDUIT     0.000     0  00:00      0.00    0.00    0.11
  H0020211             CONDUIT     0.118     0  02:41      1.01    0.29    0.24
  H0018982             CONDUIT     0.027     0  02:40      0.52    0.04    0.14
  H0018753             CONDUIT     0.008     0  02:36      0.44    0.11    0.30
  H0018845             CONDUIT     0.000     0  00:00      0.00    0.00    0.00
  H0018863             CONDUIT     0.009     0  02:36      0.43    0.20    0.33
  H0019156             CONDUIT     0.000     0  00:00      0.00    0.00    0.00
  H0018929             CONDUIT     0.058     0  02:40      0.71    0.05    0.19
  H0018440             CONDUIT     0.022     0  02:38      0.73    0.40    0.44
  H0018456             CONDUIT     0.023     0  02:38      0.86    0.14    0.27
  H0018968             CONDUIT     0.207     0  02:42      2.64    0.08    0.18
  H0022036             CONDUIT     0.006     0  02:35      0.46    0.00    0.06
  H0021806             CONDUIT     0.026     0  02:39      0.76    0.23    0.32
  H0022111             CONDUIT     0.013     0  02:40      0.47    0.09    0.20
  H0021440             CONDUIT     0.109     0  02:40      1.42    0.07    0.18
  H0021704             CONDUIT     0.065     0  02:40      0.77    0.12    0.19
  H0020521             CONDUIT     0.008     0  02:36      0.42    0.15    0.30
  H0020755             CONDUIT     0.009     0  02:37      0.41    0.10    0.23
  H0020530             CONDUIT     0.207     0  02:41      1.68    0.18    0.25
  H0020618             CONDUIT     0.145     0  02:41      1.80    0.09    0.18
  H0021163             CONDUIT     0.014     0  02:36      0.82    0.24    0.30
  H0020497             CONDUIT     0.000     0  00:00      0.00    0.00    0.30
  H0024325             CONDUIT     0.026     0  02:40      1.08    0.08    0.18
  H0023585             CONDUIT     0.061     0  02:40      1.56    0.14    0.25
  H0024098             CONDUIT     0.023     0  02:37      0.91    0.27    0.48
  H0024235             CONDUIT     0.028     0  02:39      0.85    0.11    0.22
  H0024282             CONDUIT     0.000     0  00:00      0.00    0.00    0.00
  H0024308             CONDUIT     0.207     0  02:42      2.97    0.06    0.17
  H0024498             CONDUIT     0.022     0  02:38      0.86    0.34    0.39
  H0026990             CONDUIT     0.007     0  02:35      0.46    0.05    0.18
  H0041650             CONDUIT     0.030     0  02:40      0.54    0.03    0.14
  H0041011             CONDUIT     0.014     0  02:37      0.79    0.14    0.30
  H0045103             CONDUIT     0.027     0  02:40      0.56    0.03    0.13
  H0045104             CONDUIT     0.207     0  02:41      2.48    0.07    0.19
  H0045105             CONDUIT     0.002     0  02:35      0.23    0.03    0.16
  H0045106             CONDUIT     0.048     0  02:40      1.57    0.06    0.21
  H0045107             CONDUIT     0.008     0  02:36      0.49    0.13    0.28
  H0045108             CONDUIT     0.013     0  02:37      0.52    0.23    0.38
  
  
  ***************************
  Flow Classification Summary
  ***************************
  
  -------------------------------------------------------------------------------------
                      Adjusted    ---------- Fraction of Time in Flow Class ---------- 
                       /Actual         Up    Down  Sub   Sup   Up    Down  Norm  Inlet 
  Conduit               Length    Dry  Dry   Dry   Crit  Crit  Crit  Crit  Ltd   Ctrl  
  -------------------------------------------------------------------------------------
  H0014431                1.00   0.03  0.00  0.00  0.97  0.00  0.00  0.00  0.97  0.00
  H0014433                1.00   0.03  0.00  0.00  0.97  0.00  0.00  0.00  0.97  0.00
  H0014352                1.00   0.03  0.00  0.00  0.93  0.04  0.00  0.00  0.97  0.00
  H0014373                1.00   0.03  0.00  0.00  0.91  0.06  0.00  0.00  0.90  0.00
  H0017981                1.00   0.03  0.00  0.00  0.00  0.00  0.00  0.97  0.00  0.00
  H0017755                1.00   0.03  0.00  0.00  0.00  0.00  0.00  0.97  0.00  0.00
  H0017791                1.00   0.03  0.00  0.00  0.97  0.00  0.00  0.00  0.97  0.00
  H0017357                1.00   0.03  0.97  0.00  0.00  0.00  0.00  0.00  0.00  0.00
  H0018216                1.00   0.03  0.91  0.00  0.06  0.00  0.00  0.00  0.97  0.00
  H0016792                1.00   0.03  0.90  0.00  0.07  0.00  0.00  0.00  0.97  0.00
  H0019507                1.00   0.03  0.00  0.00  0.97  0.00  0.00  0.00  0.97  0.00
  H0019998                1.00   0.03  0.00  0.00  0.91  0.06  0.00  0.00  0.07  0.00
  H0019576                1.00   0.03  0.00  0.00  0.93  0.03  0.00  0.00  0.07  0.00
  H0020087                1.00   0.03  0.97  0.00  0.00  0.00  0.00  0.00  0.00  0.00
  H0020211                1.00   0.03  0.00  0.00  0.97  0.00  0.00  0.00  0.89  0.00
  H0018982                1.00   0.03  0.00  0.00  0.97  0.00  0.00  0.00  0.92  0.00
  H0018753                1.00   0.03  0.00  0.00  0.97  0.00  0.00  0.00  0.97  0.00
  H0018845                1.00   1.00  0.00  0.00  0.00  0.00  0.00  0.00  0.00  0.00
  H0018863                1.00   0.03  0.00  0.00  0.97  0.00  0.00  0.00  0.97  0.00
  H0019156                1.00   1.00  0.00  0.00  0.00  0.00  0.00  0.00  0.00  0.00
  H0018929                1.00   0.03  0.90  0.00  0.06  0.00  0.00  0.00  0.97  0.00
  H0018440                1.00   0.03  0.00  0.00  0.97  0.00  0.00  0.00  0.96  0.00
  H0018456                1.00   0.03  0.00  0.00  0.97  0.00  0.00  0.00  0.97  0.00
  H0018968                1.00   0.03  0.00  0.00  0.91  0.06  0.00  0.00  0.91  0.00
  H0022036                1.00   0.03  0.00  0.00  0.01  0.01  0.00  0.95  0.00  0.00
  H0021806                1.00   0.03  0.90  0.00  0.06  0.00  0.00  0.00  0.95  0.00
  H0022111                1.00   0.03  0.00  0.00  0.97  0.00  0.00  0.00  0.00  0.00
  H0021440                1.00   0.03  0.00  0.00  0.93  0.04  0.00  0.00  0.02  0.00
  H0021704                1.00   0.03  0.00  0.00  0.00  0.00  0.00  0.97  0.00  0.00
  H0020521                1.00   0.03  0.00  0.00  0.97  0.00  0.00  0.00  0.97  0.00
  H0020755                1.00   0.03  0.91  0.00  0.06  0.00  0.00  0.00  0.97  0.00
  H0020530                1.00   0.03  0.00  0.00  0.93  0.04  0.00  0.00  0.00  0.00
  H0020618                1.00   0.03  0.00  0.00  0.92  0.05  0.00  0.00  0.90  0.00
  H0021163                1.00   0.03  0.00  0.00  0.96  0.00  0.00  0.00  0.92  0.00
  H0020497                1.20   0.03  0.97  0.00  0.00  0.00  0.00  0.00  0.00  0.00
  H0024325                1.00   0.03  0.00  0.00  0.93  0.04  0.00  0.00  0.92  0.00
  H0023585                1.00   0.03  0.00  0.00  0.00  0.00  0.00  0.97  0.00  0.00
  H0024098                1.00   0.03  0.91  0.00  0.06  0.00  0.00  0.00  0.97  0.00
  H0024235                1.00   0.03  0.00  0.00  0.00  0.00  0.00  0.97  0.00  0.00
  H0024282                1.00   1.00  0.00  0.00  0.00  0.00  0.00  0.00  0.00  0.00
  H0024308                1.00   0.03  0.00  0.00  0.90  0.07  0.00  0.00  0.02  0.00
  H0024498                1.00   0.03  0.00  0.00  0.00  0.00  0.00  0.97  0.00  0.00
  H0026990                1.00   0.03  0.00  0.00  0.97  0.00  0.00  0.00  0.97  0.00
  H0041650                1.00   0.94  0.01  0.00  0.05  0.00  0.00  0.00  0.96  0.00
  H0041011                1.00   0.03  0.00  0.00  0.97  0.00  0.00  0.00  0.97  0.00
  H0045103                1.00   0.03  0.00  0.00  0.97  0.00  0.00  0.00  0.94  0.00
  H0045104                1.00   0.03  0.00  0.00  0.91  0.06  0.00  0.00  0.07  0.00
  H0045105                1.00   0.03  0.00  0.00  0.97  0.00  0.00  0.00  0.97  0.00
  H0045106                1.00   0.03  0.00  0.00  0.92  0.04  0.00  0.00  0.97  0.00
  H0045107                1.00   0.03  0.00  0.00  0.97  0.00  0.00  0.00  0.97  0.00
  H0045108                1.00   0.03  0.00  0.00  0.97  0.00  0.00  0.00  0.97  0.00
  
  
  *************************
  Conduit Surcharge Summary
  *************************
  
  No conduits were surcharged.
  

  Analysis begun on:  Fri Mar 22 15:55:06 2024
  Analysis ended on:  Fri Mar 22 15:55:16 2024
  Total elapsed time: 00:00:10