
  EPA STORM WATER MANAGEMENT MODEL - VERSION 5.2 (Build 5.2.4)
  PYSWMM TOOLKIT API - VERSION v1.0 (2023-11-27)
  ------------------------------------------------------------

  Gievenbeck_e2_T50D360 
  
  ****************
  Analysis Options
  ****************
  Flow Units ............... CMS
  Process Models:
    Rainfall/Runoff ........ YES
    RDII ................... NO
    Snowmelt ............... NO
    Groundwater ............ NO
    Flow Routing ........... YES
    Ponding Allowed ........ NO
    Water Quality .......... NO
  Infiltration Method ...... HORTON
  Flow Routing Method ...... DYNWAVE
  Surcharge Method ......... SLOT
  Starting Date ............ 01/01/2024 00:00:00
  Ending Date .............. 01/04/2024 04:00:00
  Antecedent Dry Days ...... 14.0
  Report Time Step ......... 00:01:00
  Wet Time Step ............ 00:01:00
  Dry Time Step ............ 00:01:00
  Routing Time Step ........ 1.00 sec
  Variable Time Step ....... YES
  Maximum Trials ........... 8
  Number of Threads ........ 1
  Head Tolerance ........... 0.001500 m
  
  
  **************************        Volume         Depth
  Runoff Quantity Continuity     hectare-m            mm
  **************************     ---------       -------
  Total Precipitation ......         0.631        62.340
  Evaporation Loss .........         0.010         0.953
  Infiltration Loss ........         0.259        25.621
  Surface Runoff ...........         0.363        35.842
  Final Storage ............         0.000         0.000
  Continuity Error (%) .....        -0.122
  
  
  **************************        Volume        Volume
  Flow Routing Continuity        hectare-m      10^6 ltr
  **************************     ---------     ---------
  Dry Weather Inflow .......         0.000         0.000
  Wet Weather Inflow .......         0.363         3.628
  Groundwater Inflow .......         0.000         0.000
  RDII Inflow ..............         0.000         0.000
  External Inflow ..........         0.000         0.000
  External Outflow .........         0.343         3.431
  Flooding Loss ............         0.020         0.203
  Evaporation Loss .........         0.000         0.000
  Exfiltration Loss ........         0.000         0.000
  Initial Stored Volume ....         0.000         0.000
  Final Stored Volume ......         0.000         0.000
  Continuity Error (%) .....        -0.161
  
  
  *************************
  Highest Continuity Errors
  *************************
  Node R0019206 (1.24%)
  
  
  ***************************
  Time-Step Critical Elements
  ***************************
  None
  
  
  ********************************
  Highest Flow Instability Indexes
  ********************************
  All links are stable.
  
  
  *********************************
  Most Frequent Nonconverging Nodes
  *********************************
  Convergence obtained at all time steps.
  
  
  *************************
  Routing Time Step Summary
  *************************
  Minimum Time Step           :     0.50 sec
  Average Time Step           :     1.00 sec
  Maximum Time Step           :     1.00 sec
  % of Time in Steady State   :     0.00
  Average Iterations per Step :     2.00
  % of Steps Not Converging   :     0.00
  Time Step Frequencies       :
      1.000 -  0.871 sec      :    99.98 %
      0.871 -  0.758 sec      :     0.01 %
      0.758 -  0.660 sec      :     0.00 %
      0.660 -  0.574 sec      :     0.00 %
      0.574 -  0.500 sec      :     0.01 %
  
  
  ***************************
  Subcatchment Runoff Summary
  ***************************
  
  ------------------------------------------------------------------------------------------------------------------------------
                            Total      Total      Total      Total     Imperv       Perv      Total       Total     Peak  Runoff
                           Precip      Runon       Evap      Infil     Runoff     Runoff     Runoff      Runoff   Runoff   Coeff
  Subcatchment                 mm         mm         mm         mm         mm         mm         mm    10^6 ltr      CMS
  ------------------------------------------------------------------------------------------------------------------------------
  EZG_368                   62.34       0.00       0.95      25.80      30.27       9.94      35.67        0.15     0.18   0.572
  EZG_392                   62.34       0.00       0.94      25.64      30.28      10.09      35.83        0.12     0.15   0.575
  EZG_352                   62.34       0.00       0.95      26.04      30.26       9.69      35.42        0.21     0.24   0.568
  EZG_372                   62.34       0.00       0.93      25.16      30.30      10.59      36.35        0.05     0.07   0.583
  EZG_416                   62.34       0.00       0.94      25.58      30.28      10.16      35.90        0.10     0.13   0.576
  EZG_388                   62.34       0.00       0.95      25.86      30.27       9.87      35.60        0.16     0.20   0.571
  EZG_394                   62.34       0.00       0.94      25.55      30.28      10.19      35.93        0.10     0.13   0.576
  EZG_400                   62.34       0.00       0.94      25.51      30.29      10.23      35.98        0.09     0.12   0.577
  EZG_390                   62.34       0.00       0.94      25.63      30.28      10.11      35.85        0.11     0.14   0.575
  EZG_350                   62.34       0.00       0.95      25.87      30.27       9.87      35.60        0.16     0.20   0.571
  EZG_370                   62.34       0.00       0.95      25.71      30.28      10.03      35.76        0.13     0.16   0.574
  EZG_398                   62.34       0.00       0.93      25.01      30.31      10.75      36.51        0.04     0.05   0.586
  EZG_382                   62.34       0.00       0.93      24.96      30.31      10.80      36.57        0.03     0.05   0.587
  EZG_374                   62.34       0.00       1.14      21.06      36.32       9.35      40.22        0.15     0.18   0.645
  EZG_412                   62.34       0.00       0.92      24.63      30.33      11.14      36.92        0.01     0.02   0.592
  EZG_344                   62.34       0.00       0.94      25.50      30.29      10.24      35.99        0.09     0.12   0.577
  EZG_376                   62.34       0.00       0.94      25.36      30.29      10.38      36.13        0.07     0.10   0.580
  EZG_356                   62.34       0.00       0.95      26.09      30.26       9.63      35.36        0.23     0.26   0.567
  EZG_386                   62.34       0.00       0.96      26.25      30.25       9.47      35.19        0.28     0.32   0.564
  EZG_380                   62.34       0.00       0.95      25.76      30.28       9.98      35.71        0.14     0.17   0.573
  EZG_378                   62.34       0.00       0.94      25.68      30.28      10.06      35.79        0.12     0.15   0.574
  EZG_414                   62.34       0.00       0.93      24.95      30.31      10.81      36.58        0.03     0.05   0.587
  EZG_402                   62.34       0.00       0.94      25.65      30.28      10.09      35.83        0.12     0.15   0.575
  EZG_358                   62.34       0.00       0.95      26.09      30.26       9.64      35.37        0.22     0.26   0.567
  EZG_364                   62.34       0.00       0.95      26.09      30.26       9.64      35.36        0.22     0.26   0.567
  EZG_410                   62.34       0.00       0.94      25.39      30.29      10.35      36.10        0.08     0.10   0.579
  EZG_366                   62.34       0.00       0.94      25.47      30.29      10.28      36.02        0.09     0.11   0.578
  EZG_18259                 62.34       0.00       0.94      25.46      30.29      10.28      36.03        0.09     0.11   0.578
  EZG_18258                 62.34       0.00       0.93      24.80      30.32      10.97      36.74        0.02     0.03   0.589
  EZG_346                   62.34       0.00       0.93      26.19      29.67      10.08      35.30        0.13     0.16   0.566
  EZG_348                   62.34       0.00       0.92      25.89      29.69      10.39      35.62        0.08     0.10   0.571
  
  
  ******************
  Node Depth Summary
  ******************
  
  ---------------------------------------------------------------------------------
                                 Average  Maximum  Maximum  Time of Max    Reported
                                   Depth    Depth      HGL   Occurrence   Max Depth
  Node                 Type       Meters   Meters   Meters  days hr:min      Meters
  ---------------------------------------------------------------------------------
  R0019466             JUNCTION     0.01     2.81    72.26     0  04:04        2.81
  R0019468             JUNCTION     0.01     2.73    72.04     0  04:04        2.73
  R0019831             JUNCTION     0.01     1.66    70.83     0  04:02        1.66
  R0019825             JUNCTION     0.01     1.50    70.34     0  04:01        1.50
  R0019843             JUNCTION     0.01     1.90    69.53     0  04:03        1.82
  R0019368             JUNCTION     0.02     1.83    68.62     0  04:03        1.80
  R0019369             JUNCTION     0.01     1.02    67.61     0  04:05        1.01
  R0019370             JUNCTION     0.01     0.69    66.59     0  04:06        0.68
  R0019345             JUNCTION     0.01     2.05    71.95     0  04:05        1.94
  R0019346             JUNCTION     0.01     2.04    71.84     0  04:05        1.86
  R0043600             JUNCTION     0.01     2.54    72.21     0  04:05        1.72
  R0019203             JUNCTION     0.01     2.34    71.88     0  04:05        1.83
  R0043594             JUNCTION     0.01     2.70    72.43     0  04:05        1.65
  R0021458             JUNCTION     0.01     2.50    72.15     0  04:05        1.78
  R0019202             JUNCTION     0.01     2.35    71.93     0  04:05        1.84
  R0019373             JUNCTION     0.01     2.80    72.47     0  04:05        2.57
  R0019254             JUNCTION     0.01     2.13    72.17     0  04:04        2.13
  R0019716             JUNCTION     0.01     2.24    71.25     0  04:05        1.74
  R0019946             JUNCTION     0.02     2.27    70.89     0  04:05        1.82
  R0013935             JUNCTION     0.01     1.62    70.45     0  04:02        1.62
  R0019939             JUNCTION     0.01     1.88    70.45     0  04:05        1.88
  R0019944             JUNCTION     0.01     1.75    70.03     0  04:05        1.47
  R0043703             JUNCTION     0.01     1.90    70.50     0  04:05        1.52
  R0019945             JUNCTION     0.01     1.80    70.20     0  04:05        1.48
  R0039621             JUNCTION     0.00     1.56    71.13     0  04:03        1.56
  R0019838             JUNCTION     0.01     1.80    71.26     0  04:03        1.80
  R0039606             JUNCTION     0.01     2.33    71.92     0  04:05        1.84
  R0019204             JUNCTION     0.00     0.00    69.91     0  00:00        0.00
  R0019205             JUNCTION     0.00     0.00    69.62     0  00:00        0.00
  R0019849             JUNCTION     0.01     1.80    70.32     0  04:05        1.77
  R0019371             JUNCTION     0.00     0.00    70.41     0  00:00        0.00
  R0019718             JUNCTION     0.01     2.38    71.80     0  04:05        1.83
  R0021442             JUNCTION     0.01     2.05    72.10     0  04:01        2.05
  R0019247             JUNCTION     0.01     2.26    72.14     0  04:05        1.76
  R0019719             JUNCTION     0.01     2.06    71.74     0  04:05        1.74
  R0019767             JUNCTION     0.01     0.74    65.47     0  04:06        0.71
  R0019768             JUNCTION     0.01     0.59    64.36     0  04:06        0.58
  R0021453             JUNCTION     0.00     2.40    72.35     0  04:05        1.42
  R0019839             JUNCTION     0.01     1.96    71.35     0  04:03        1.88
  R0019717             JUNCTION     0.01     2.26    71.60     0  04:05        1.72
  R0019252             JUNCTION     0.01     1.94    72.13     0  04:02        1.94
  R0019721             JUNCTION     0.01     1.96    71.83     0  04:05        1.95
  R0019942             JUNCTION     0.01     1.74    70.39     0  04:05        1.65
  R0019206             JUNCTION     0.00     0.53    69.60     0  04:06        0.52
  R0019840             JUNCTION     0.01     2.09    71.06     0  04:05        2.08
  R0043702             JUNCTION     0.01     2.28    70.98     0  04:05        2.28
  R0019723             JUNCTION     0.00     1.72    71.80     0  04:04        1.72
  R0019724             JUNCTION     0.00     1.72    71.88     0  04:04        1.70
  R0021433             JUNCTION     0.01     2.15    72.54     0  04:01        2.15
  R0021435             JUNCTION     0.01     2.11    72.29     0  04:01        2.11
  R0019769             OUTFALL      0.01     0.59    63.97     0  04:06        0.58
  
  
  *******************
  Node Inflow Summary
  *******************
  
  -------------------------------------------------------------------------------------------------
                                  Maximum  Maximum                  Lateral       Total        Flow
                                  Lateral    Total  Time of Max      Inflow      Inflow     Balance
                                   Inflow   Inflow   Occurrence      Volume      Volume       Error
  Node                 Type           CMS      CMS  days hr:min    10^6 ltr    10^6 ltr     Percent
  -------------------------------------------------------------------------------------------------
  R0019466             JUNCTION     0.180    0.180     0  04:05       0.147       0.224       0.031
  R0019468             JUNCTION     0.112    0.187     0  04:05      0.0862       0.288      -0.005
  R0019831             JUNCTION     0.146    0.146     0  04:05       0.116       0.116       0.055
  R0019825             JUNCTION     0.146    0.247     0  04:05       0.116       0.227       0.024
  R0019843             JUNCTION     0.000    2.684     0  04:05           0        3.43      -0.055
  R0019368             JUNCTION     0.000    2.603     0  04:05           0        3.43      -0.029
  R0019369             JUNCTION     0.000    2.605     0  04:05           0        3.43      -0.011
  R0019370             JUNCTION     0.000    2.609     0  04:06           0        3.43       0.000
  R0019345             JUNCTION     0.000    0.162     0  04:02           0       0.198       0.023
  R0019346             JUNCTION     0.022    0.317     0  04:03      0.0147       0.351       0.012
  R0043600             JUNCTION     0.000    0.223     0  04:03           0       0.357      -0.084
  R0019203             JUNCTION     0.046    0.969     0  04:05      0.0323       0.972      -0.059
  R0043594             JUNCTION     0.244    0.651     0  04:04       0.209       0.311      -0.196
  R0021458             JUNCTION     0.197    0.672     0  04:05       0.163       0.475      -0.044
  R0019202             JUNCTION     0.068    0.836     0  04:05      0.0492       0.585      -0.229
  R0019373             JUNCTION     0.159    0.229     0  04:04       0.128       0.145       0.736
  R0019254             JUNCTION     0.133    0.176     0  04:02       0.105       0.199       0.019
  R0019716             JUNCTION     0.196    1.752     0  04:05       0.162        1.98      -0.013
  R0019946             JUNCTION     0.000    1.748     0  04:05           0        1.98      -0.006
  R0013935             JUNCTION     0.127    0.127     0  04:05      0.0997      0.0997       0.015
  R0019939             JUNCTION     0.051    0.129     0  04:02      0.0361       0.125      -0.020
  R0019944             JUNCTION     0.120    2.082     0  04:05      0.0927         2.5       0.011
  R0043703             JUNCTION     0.143    1.843     0  04:05       0.113         2.1      -0.012
  R0019945             JUNCTION     0.000    1.991     0  04:05           0        2.41      -0.019
  R0039621             JUNCTION     0.000    0.251     0  04:05           0      0.0341      -0.670
  R0019838             JUNCTION     0.262    0.262     0  04:05       0.227       0.231      -0.087
  R0039606             JUNCTION     0.000    0.653     0  04:05           0       0.473       0.129
  R0019204             JUNCTION     0.000    0.000     0  00:00           0           0       0.000 ltr
  R0019205             JUNCTION     0.000    0.000     0  00:00           0           0       0.000 ltr
  R0019849             JUNCTION     0.000    0.224     0  04:02           0       0.309       0.002
  R0019371             JUNCTION     0.000    0.000     0  00:00           0           0       0.000 ltr
  R0019718             JUNCTION     0.171    1.107     0  04:05       0.139        1.11      -0.301
  R0021442             JUNCTION     0.184    0.256     0  04:05       0.152       0.316       0.010
  R0019247             JUNCTION     0.095    0.225     0  04:04       0.072       0.357       0.090
  R0019719             JUNCTION     0.100    0.401     0  04:03      0.0758       0.427       0.422
  R0019767             JUNCTION     0.000    2.614     0  04:06           0        3.43      -0.003
  R0019768             JUNCTION     0.000    2.597     0  04:06           0        3.43       0.004
  R0021453             JUNCTION     0.118    0.594     0  04:05       0.091      0.0946      -1.582
  R0019839             JUNCTION     0.259    0.398     0  04:03       0.224       0.421       0.038
  R0019717             JUNCTION     0.316    1.601     0  04:05       0.281        1.82       0.007
  R0019252             JUNCTION     0.153    0.164     0  04:05       0.123       0.123      -0.034
  R0019721             JUNCTION     0.045    0.167     0  04:04      0.0318       0.138       0.026
  R0019942             JUNCTION     0.000    0.125     0  04:01           0       0.184      -0.116
  R0019206             JUNCTION     0.000    0.097     0  04:05           0      0.0033       1.254
  R0019840             JUNCTION     0.000    0.543     0  04:03           0       0.707      -0.041
  R0043702             JUNCTION     0.260    0.725     0  04:03       0.224       0.931       0.315
  R0019723             JUNCTION     0.111    0.152     0  04:05      0.0856       0.108      -0.125
  R0019724             JUNCTION     0.033    0.057     0  04:02      0.0225      0.0227      -0.305
  R0021433             JUNCTION     0.160    0.160     0  04:05       0.128       0.128      -0.113
  R0021435             JUNCTION     0.104    0.176     0  04:05      0.0792       0.191       0.017
  R0019769             OUTFALL      0.000    2.605     0  04:06           0        3.43       0.000
  
  
  **********************
  Node Surcharge Summary
  **********************
  
  Surcharging occurs when water rises above the top of the highest conduit.
  ---------------------------------------------------------------------
                                               Max. Height   Min. Depth
                                   Hours       Above Crown    Below Rim
  Node                 Type      Surcharged         Meters       Meters
  ---------------------------------------------------------------------
  R0019466             JUNCTION        0.24          2.510        0.000
  R0019468             JUNCTION        0.23          2.430        0.000
  R0019831             JUNCTION        0.17          1.360        0.000
  R0019825             JUNCTION        0.20          1.200        0.000
  R0019843             JUNCTION        0.11          0.998        1.622
  R0019368             JUNCTION        0.14          0.926        0.124
  R0019369             JUNCTION        0.03          0.116        0.934
  R0019345             JUNCTION        0.16          1.750        0.000
  R0019346             JUNCTION        0.13          1.639        0.101
  R0043600             JUNCTION        0.15          2.138        0.442
  R0019203             JUNCTION        0.06          1.442        0.538
  R0043594             JUNCTION        0.04          1.769        0.051
  R0021458             JUNCTION        0.05          1.596        0.484
  R0019202             JUNCTION        0.05          1.447        0.553
  R0019373             JUNCTION        0.18          2.500        0.000
  R0019254             JUNCTION        0.18          1.830        0.000
  R0019716             JUNCTION        0.08          1.341        0.379
  R0019946             JUNCTION        0.12          1.373        0.147
  R0013935             JUNCTION        0.18          1.320        0.000
  R0019939             JUNCTION        0.24          1.582        0.038
  R0019944             JUNCTION        0.07          0.847        0.683
  R0043703             JUNCTION        0.07          0.996        0.324
  R0019945             JUNCTION        0.07          0.896        0.564
  R0039621             JUNCTION        0.08          1.060        0.000
  R0019838             JUNCTION        0.09          1.300        0.000
  R0039606             JUNCTION        0.05          1.428        0.572
  R0019849             JUNCTION        0.25          1.498        0.432
  R0019718             JUNCTION        0.07          1.482        0.518
  R0021442             JUNCTION        0.27          1.750        0.000
  R0019247             JUNCTION        0.17          1.860        0.000
  R0019719             JUNCTION        0.11          1.557        0.243
  R0021453             JUNCTION        0.03          1.500        0.000
  R0019839             JUNCTION        0.09          1.463        0.187
  R0019717             JUNCTION        0.06          1.316        0.534
  R0019252             JUNCTION        0.16          1.640        0.000
  R0019721             JUNCTION        0.13          1.560        0.000
  R0019942             JUNCTION        0.22          1.441        0.209
  R0019206             JUNCTION        0.01          0.230        1.480
  R0019840             JUNCTION        0.12          1.591        0.979
  R0043702             JUNCTION        0.14          1.783        1.127
  R0019723             JUNCTION        0.10          1.320        0.000
  R0019724             JUNCTION        0.10          1.418        0.032
  R0021433             JUNCTION        0.20          1.850        0.000
  R0021435             JUNCTION        0.24          1.810        0.000
  
  
  *********************
  Node Flooding Summary
  *********************
  
  Flooding refers to all water that overflows a node, whether it ponds or not.
  --------------------------------------------------------------------------
                                                             Total   Maximum
                                 Maximum   Time of Max       Flood    Ponded
                        Hours       Rate    Occurrence      Volume     Depth
  Node                 Flooded       CMS   days hr:min    10^6 ltr    Meters
  --------------------------------------------------------------------------
  R0019466                0.03     0.079      0  04:05       0.005     0.000
  R0019468                0.03     0.030      0  04:05       0.002     0.000
  R0019831                0.06     0.045      0  04:05       0.006     0.000
  R0019825                0.11     0.181      0  04:05       0.043     0.000
  R0019345                0.01     0.021      0  04:05       0.000     0.000
  R0019373                0.01     0.010      0  04:05       0.000     0.000
  R0019254                0.02     0.019      0  04:05       0.000     0.000
  R0013935                0.07     0.077      0  04:05       0.010     0.000
  R0039621                0.06     0.251      0  04:05       0.030     0.000
  R0019838                0.01     0.030      0  04:03       0.000     0.000
  R0021442                0.10     0.161      0  04:05       0.030     0.000
  R0019247                0.01     0.080      0  04:05       0.000     0.000
  R0021453                0.01     0.093      0  04:05       0.000     0.000
  R0019252                0.09     0.164      0  04:05       0.029     0.000
  R0019721                0.01     0.035      0  04:05       0.000     0.000
  R0019723                0.03     0.040      0  04:05       0.002     0.000
  R0021433                0.09     0.088      0  04:05       0.017     0.000
  R0021435                0.11     0.103      0  04:05       0.028     0.000
  
  
  ***********************
  Outfall Loading Summary
  ***********************
  
  -----------------------------------------------------------
                         Flow       Avg       Max       Total
                         Freq      Flow      Flow      Volume
  Outfall Node           Pcnt       CMS       CMS    10^6 ltr
  -----------------------------------------------------------
  R0019769              10.81     0.117     2.605       3.431
  -----------------------------------------------------------
  System                10.81     0.117     2.605       3.431
  
  
  ********************
  Link Flow Summary
  ********************
  
  -----------------------------------------------------------------------------
                                 Maximum  Time of Max   Maximum    Max/    Max/
                                  |Flow|   Occurrence   |Veloc|    Full    Full
  Link                 Type          CMS  days hr:min     m/sec    Flow   Depth
  -----------------------------------------------------------------------------
  H0014431             CONDUIT     0.088     0  04:06      1.25    1.63    1.00
  H0014433             CONDUIT     0.100     0  04:05      1.42    1.28    1.00
  H0014352             CONDUIT     2.603     0  04:05      4.09    1.07    1.00
  H0014373             CONDUIT     2.609     0  04:06      4.36    1.20    0.94
  H0017981             CONDUIT     0.164     0  04:02      2.32    4.64    1.00
  H0017755             CONDUIT     0.246     0  04:05      1.95    1.99    1.00
  H0017791             CONDUIT     0.503     0  04:05      0.79    0.73    1.00
  H0017357             CONDUIT     0.217     0  04:04      3.07    3.47    1.00
  H0018216             CONDUIT     0.162     0  04:02      2.29    2.95    1.00
  H0016792             CONDUIT     1.748     0  04:05      2.75    1.00    1.00
  H0019507             CONDUIT     0.088     0  04:02      1.24    1.22    1.00
  H0019998             CONDUIT     2.083     0  04:05      3.47    0.83    1.00
  H0019576             CONDUIT     1.887     0  04:05      2.97    1.27    1.00
  H0020087             CONDUIT     0.251     0  04:05      1.28    1.10    1.00
  H0020211             CONDUIT     1.742     0  04:05      2.74    4.34    1.00
  H0018982             CONDUIT     0.653     0  04:05      1.03    1.05    1.00
  H0018753             CONDUIT     0.082     0  04:04      1.16    1.16    1.00
  H0018845             CONDUIT     0.000     0  00:00      0.00    0.00    0.00
  H0018863             CONDUIT     0.125     0  04:02      1.77    2.94    1.00
  H0019156             CONDUIT     0.000     0  00:00      0.00    0.00    0.00
  H0018929             CONDUIT     0.971     0  04:05      1.53    0.84    1.00
  H0018440             CONDUIT     0.158     0  04:01      2.23    2.83    1.00
  H0018456             CONDUIT     0.311     0  04:03      2.47    1.89    1.00
  H0018968             CONDUIT     2.597     0  04:06      5.18    1.00    0.74
  H0022036             CONDUIT     0.479     0  04:05      0.75    0.37    1.00
  H0021806             CONDUIT     0.223     0  04:03      1.77    1.98    1.00
  H0022111             CONDUIT     0.182     0  04:03      0.93    1.30    1.00
  H0021440             CONDUIT     1.601     0  04:05      2.52    1.03    1.00
  H0021704             CONDUIT     1.112     0  04:05      1.75    2.12    1.00
  H0020521             CONDUIT     0.083     0  04:02      1.17    1.68    1.00
  H0020755             CONDUIT     0.160     0  04:03      1.27    1.76    1.00
  H0020530             CONDUIT     2.605     0  04:05      4.09    2.23    1.00
  H0020618             CONDUIT     2.001     0  04:05      3.35    1.24    1.00
  H0021163             CONDUIT     0.125     0  04:01      1.76    2.08    1.00
  H0020497             CONDUIT     0.097     0  04:05      1.37    0.21    1.00
  H0024325             CONDUIT     0.389     0  04:03      1.98    1.16    1.00
  H0023585             CONDUIT     0.705     0  04:04      3.59    1.62    1.00
  H0024098             CONDUIT     0.221     0  04:02      3.12    2.57    1.00
  H0024235             CONDUIT     0.396     0  04:03      2.02    1.62    1.00
  H0024282             CONDUIT     0.000     0  00:00      0.00    0.00    0.88
  H0024308             CONDUIT     2.605     0  04:06      5.91    0.76    0.65
  H0024498             CONDUIT     0.169     0  04:05      2.39    2.61    1.00
  H0026990             CONDUIT     0.124     0  04:04      0.99    0.94    1.00
  H0041650             CONDUIT     0.834     0  04:05      1.31    0.97    1.00
  H0041011             CONDUIT     0.115     0  04:01      1.63    1.14    1.00
  H0045103             CONDUIT     0.632     0  04:05      1.02    0.79    1.00
  H0045104             CONDUIT     2.614     0  04:06      4.86    0.93    0.79
  H0045105             CONDUIT     0.041     0  04:05      0.58    0.72    1.00
  H0045106             CONDUIT     0.504     0  04:03      2.57    0.68    1.00
  H0045107             CONDUIT     0.072     0  04:07      1.01    1.18    1.00
  H0045108             CONDUIT     0.088     0  04:08      1.25    1.59    1.00
  
  
  ***************************
  Flow Classification Summary
  ***************************
  
  -------------------------------------------------------------------------------------
                      Adjusted    ---------- Fraction of Time in Flow Class ---------- 
                       /Actual         Up    Down  Sub   Sup   Up    Down  Norm  Inlet 
  Conduit               Length    Dry  Dry   Dry   Crit  Crit  Crit  Crit  Ltd   Ctrl  
  -------------------------------------------------------------------------------------
  H0014431                1.00   0.03  0.00  0.00  0.97  0.00  0.00  0.00  0.96  0.00
  H0014433                1.00   0.03  0.00  0.00  0.97  0.00  0.00  0.00  0.97  0.00
  H0014352                1.00   0.03  0.00  0.00  0.88  0.08  0.00  0.00  0.96  0.00
  H0014373                1.00   0.03  0.00  0.00  0.87  0.10  0.00  0.00  0.85  0.00
  H0017981                1.00   0.03  0.00  0.00  0.00  0.00  0.00  0.97  0.00  0.00
  H0017755                1.00   0.03  0.00  0.00  0.00  0.00  0.00  0.97  0.00  0.00
  H0017791                1.00   0.03  0.00  0.00  0.97  0.00  0.00  0.00  0.96  0.00
  H0017357                1.00   0.03  0.97  0.00  0.00  0.00  0.00  0.00  0.94  0.00
  H0018216                1.00   0.03  0.86  0.00  0.11  0.00  0.00  0.00  0.96  0.00
  H0016792                1.00   0.03  0.85  0.00  0.11  0.00  0.00  0.00  0.96  0.00
  H0019507                1.00   0.03  0.00  0.00  0.97  0.00  0.00  0.00  0.97  0.00
  H0019998                1.00   0.03  0.00  0.00  0.87  0.10  0.00  0.00  0.11  0.00
  H0019576                1.00   0.03  0.00  0.00  0.89  0.08  0.00  0.00  0.10  0.00
  H0020087                1.00   0.03  0.95  0.00  0.02  0.00  0.00  0.00  0.94  0.00
  H0020211                1.00   0.03  0.00  0.00  0.97  0.00  0.00  0.00  0.85  0.00
  H0018982                1.00   0.03  0.00  0.00  0.97  0.00  0.00  0.00  0.87  0.00
  H0018753                1.00   0.03  0.00  0.00  0.97  0.00  0.00  0.00  0.97  0.00
  H0018845                1.00   1.00  0.00  0.00  0.00  0.00  0.00  0.00  0.00  0.00
  H0018863                1.00   0.03  0.00  0.00  0.97  0.00  0.00  0.00  0.96  0.00
  H0019156                1.00   1.00  0.00  0.00  0.00  0.00  0.00  0.00  0.00  0.00
  H0018929                1.00   0.03  0.86  0.00  0.11  0.00  0.00  0.00  0.96  0.00
  H0018440                1.00   0.03  0.00  0.00  0.97  0.00  0.00  0.00  0.96  0.00
  H0018456                1.00   0.03  0.00  0.00  0.97  0.00  0.00  0.00  0.96  0.00
  H0018968                1.00   0.03  0.85  0.00  0.01  0.11  0.00  0.00  0.87  0.00
  H0022036                1.00   0.03  0.00  0.00  0.05  0.03  0.00  0.89  0.03  0.00
  H0021806                1.00   0.03  0.86  0.00  0.11  0.00  0.00  0.00  0.89  0.00
  H0022111                1.00   0.03  0.00  0.00  0.97  0.00  0.00  0.00  0.00  0.00
  H0021440                1.00   0.03  0.00  0.00  0.89  0.08  0.00  0.00  0.02  0.00
  H0021704                1.00   0.03  0.00  0.00  0.00  0.00  0.00  0.97  0.00  0.00
  H0020521                1.00   0.03  0.00  0.00  0.97  0.00  0.00  0.00  0.97  0.00
  H0020755                1.00   0.03  0.87  0.00  0.10  0.00  0.00  0.00  0.96  0.00
  H0020530                1.00   0.03  0.00  0.00  0.89  0.08  0.00  0.00  0.02  0.00
  H0020618                1.00   0.03  0.00  0.00  0.88  0.09  0.00  0.00  0.88  0.00
  H0021163                1.00   0.03  0.00  0.00  0.95  0.02  0.00  0.00  0.87  0.00
  H0020497                1.20   0.03  0.97  0.00  0.00  0.00  0.00  0.00  0.95  0.00
  H0024325                1.00   0.03  0.00  0.00  0.88  0.08  0.00  0.00  0.87  0.00
  H0023585                1.00   0.03  0.00  0.00  0.00  0.00  0.00  0.97  0.00  0.00
  H0024098                1.00   0.03  0.86  0.00  0.11  0.00  0.00  0.00  0.96  0.00
  H0024235                1.00   0.03  0.00  0.00  0.00  0.00  0.00  0.97  0.00  0.00
  H0024282                1.00   1.00  0.00  0.00  0.00  0.00  0.00  0.00  0.00  0.00
  H0024308                1.00   0.03  0.00  0.00  0.85  0.12  0.00  0.00  0.04  0.00
  H0024498                1.00   0.03  0.00  0.00  0.00  0.00  0.00  0.97  0.00  0.00
  H0026990                1.00   0.03  0.00  0.00  0.97  0.00  0.00  0.00  0.97  0.00
  H0041650                1.00   0.89  0.01  0.00  0.10  0.00  0.00  0.00  0.95  0.00
  H0041011                1.00   0.03  0.00  0.00  0.97  0.00  0.00  0.00  0.96  0.00
  H0045103                1.00   0.03  0.00  0.00  0.97  0.00  0.00  0.00  0.88  0.00
  H0045104                1.00   0.03  0.00  0.00  0.86  0.11  0.00  0.00  0.11  0.00
  H0045105                1.00   0.03  0.00  0.00  0.97  0.00  0.00  0.00  0.97  0.00
  H0045106                1.00   0.03  0.00  0.00  0.88  0.09  0.00  0.00  0.96  0.00
  H0045107                1.00   0.03  0.00  0.00  0.97  0.00  0.00  0.00  0.96  0.00
  H0045108                1.00   0.03  0.00  0.00  0.97  0.00  0.00  0.00  0.96  0.00
  
  
  *************************
  Conduit Surcharge Summary
  *************************
  
  ----------------------------------------------------------------------------
                                                           Hours        Hours 
                         --------- Hours Full --------   Above Full   Capacity
  Conduit                Both Ends  Upstream  Dnstream   Normal Flow   Limited
  ----------------------------------------------------------------------------
  H0014431                    0.23      0.24      0.23      0.27         0.23
  H0014433                    0.17      0.17      0.20      0.08         0.08
  H0014352                    0.11      0.11      0.14      0.04         0.04
  H0014373                    0.01      0.03      0.01      0.10         0.01
  H0017981                    0.14      0.16      0.14      0.30         0.15
  H0017755                    0.14      0.15      0.14      0.18         0.14
  H0017791                    0.04      0.04      0.05      0.01         0.01
  H0017357                    0.12      0.12      0.17      0.12         0.01
  H0018216                    0.16      0.18      0.16      0.20         0.17
  H0016792                    0.08      0.08      0.12      0.01         0.01
  H0019507                    0.18      0.18      0.24      0.03         0.02
  H0019998                    0.07      0.07      0.11      0.01         0.01
  H0019576                    0.07      0.07      0.07      0.08         0.06
  H0020087                    0.08      0.08      0.09      0.01         0.01
  H0020211                    0.07      0.12      0.07      0.25         0.08
  H0018982                    0.05      0.05      0.05      0.01         0.01
  H0018753                    0.17      0.17      0.24      0.01         0.01
  H0018863                    0.24      0.24      0.25      0.16         0.15
  H0018929                    0.06      0.06      0.07      0.01         0.01
  H0018440                    0.20      0.27      0.20      0.31         0.24
  H0018456                    0.13      0.13      0.13      0.15         0.13
  H0022036                    0.03      0.03      0.04      0.01         0.01
  H0021806                    0.15      0.17      0.15      0.19         0.16
  H0022111                    0.09      0.09      0.09      0.04         0.03
  H0021440                    0.06      0.06      0.08      0.01         0.01
  H0021704                    0.06      0.07      0.06      0.15         0.05
  H0020521                    0.16      0.16      0.18      0.07         0.07
  H0020755                    0.13      0.13      0.13      0.08         0.07
  H0020530                    0.03      0.14      0.03      0.18         0.13
  H0020618                    0.07      0.07      0.07      0.09         0.06
  H0021163                    0.20      0.20      0.22      0.17         0.15
  H0020497                    0.01      0.01     71.94      0.01         0.01
  H0024325                    0.09      0.09      0.12      0.01         0.01
  H0023585                    0.12      0.14      0.12      0.14         0.12
  H0024098                    0.25      0.25      0.31      0.21         0.20
  H0024235                    0.10      0.11      0.11      0.10         0.09
  H0024498                    0.12      0.23      0.12      0.29         0.19
  H0026990                    0.10      0.10      0.13      0.01         0.01
  H0041650                    0.05      0.05      0.06      0.01         0.01
  H0041011                    0.22      0.22      0.25      0.03         0.02
  H0045103                    0.05      0.05      0.05      0.01         0.01
  H0045105                    0.10      0.10      0.11      0.01         0.01
  H0045106                    0.12      0.12      0.14      0.01         0.01
  H0045107                    0.20      0.20      0.24      0.10         0.10
  H0045108                    0.24      0.24      0.27      0.19         0.18
  

  Analysis begun on:  Fri Mar 22 15:56:45 2024
  Analysis ended on:  Fri Mar 22 15:56:54 2024
  Total elapsed time: 00:00:09