
  EPA STORM WATER MANAGEMENT MODEL - VERSION 5.2 (Build 5.2.4)
  PYSWMM TOOLKIT API - VERSION v1.0 (2023-11-27)
  ------------------------------------------------------------

  Gievenbeck_e2_T20D720 
  
  ****************
  Analysis Options
  ****************
  Flow Units ............... CMS
  Process Models:
    Rainfall/Runoff ........ YES
    RDII ................... NO
    Snowmelt ............... NO
    Groundwater ............ NO
    Flow Routing ........... YES
    Ponding Allowed ........ NO
    Water Quality .......... NO
  Infiltration Method ...... HORTON
  Flow Routing Method ...... DYNWAVE
  Surcharge Method ......... SLOT
  Starting Date ............ 01/01/2024 00:00:00
  Ending Date .............. 01/04/2024 04:00:00
  Antecedent Dry Days ...... 14.0
  Report Time Step ......... 00:01:00
  Wet Time Step ............ 00:01:00
  Dry Time Step ............ 00:01:00
  Routing Time Step ........ 1.00 sec
  Variable Time Step ....... YES
  Maximum Trials ........... 8
  Number of Threads ........ 1
  Head Tolerance ........... 0.001500 m
  
  
  **************************        Volume         Depth
  Runoff Quantity Continuity     hectare-m            mm
  **************************     ---------       -------
  Total Precipitation ......         0.626        61.860
  Evaporation Loss .........         0.010         0.950
  Infiltration Loss ........         0.281        27.756
  Surface Runoff ...........         0.336        33.213
  Final Storage ............         0.000         0.000
  Continuity Error (%) .....        -0.096
  
  
  **************************        Volume        Volume
  Flow Routing Continuity        hectare-m      10^6 ltr
  **************************     ---------     ---------
  Dry Weather Inflow .......         0.000         0.000
  Wet Weather Inflow .......         0.336         3.362
  Groundwater Inflow .......         0.000         0.000
  RDII Inflow ..............         0.000         0.000
  External Inflow ..........         0.000         0.000
  External Outflow .........         0.328         3.284
  Flooding Loss ............         0.008         0.079
  Evaporation Loss .........         0.000         0.000
  Exfiltration Loss ........         0.000         0.000
  Initial Stored Volume ....         0.000         0.000
  Final Stored Volume ......         0.000         0.000
  Continuity Error (%) .....        -0.024
  
  
  *************************
  Highest Continuity Errors
  *************************
  Node R0019206 (7.94%)
  
  
  ***************************
  Time-Step Critical Elements
  ***************************
  None
  
  
  ********************************
  Highest Flow Instability Indexes
  ********************************
  All links are stable.
  
  
  *********************************
  Most Frequent Nonconverging Nodes
  *********************************
  Convergence obtained at all time steps.
  
  
  *************************
  Routing Time Step Summary
  *************************
  Minimum Time Step           :     0.20 sec
  Average Time Step           :     1.00 sec
  Maximum Time Step           :     1.00 sec
  % of Time in Steady State   :     0.00
  Average Iterations per Step :     2.00
  % of Steps Not Converging   :     0.00
  Time Step Frequencies       :
      1.000 -  0.871 sec      :    99.99 %
      0.871 -  0.758 sec      :     0.00 %
      0.758 -  0.660 sec      :     0.00 %
      0.660 -  0.574 sec      :     0.00 %
      0.574 -  0.500 sec      :     0.00 %
  
  
  ***************************
  Subcatchment Runoff Summary
  ***************************
  
  ------------------------------------------------------------------------------------------------------------------------------
                            Total      Total      Total      Total     Imperv       Perv      Total       Total     Peak  Runoff
                           Precip      Runon       Evap      Infil     Runoff     Runoff     Runoff      Runoff   Runoff   Coeff
  Subcatchment                 mm         mm         mm         mm         mm         mm         mm    10^6 ltr      CMS
  ------------------------------------------------------------------------------------------------------------------------------
  EZG_368                   61.86       0.00       0.94      27.94      30.03       7.51      33.03        0.14     0.14   0.534
  EZG_392                   61.86       0.00       0.94      27.78      30.03       7.67      33.20        0.11     0.12   0.537
  EZG_352                   61.86       0.00       0.95      28.20      30.02       7.25      32.77        0.19     0.19   0.530
  EZG_372                   61.86       0.00       0.93      27.26      30.05       8.21      33.75        0.05     0.05   0.546
  EZG_416                   61.86       0.00       0.94      27.71      30.03       7.74      33.27        0.10     0.11   0.538
  EZG_388                   61.86       0.00       0.95      28.01      30.02       7.44      32.96        0.15     0.16   0.533
  EZG_394                   61.86       0.00       0.94      27.68      30.04       7.77      33.30        0.09     0.10   0.538
  EZG_400                   61.86       0.00       0.94      27.63      30.04       7.82      33.35        0.09     0.10   0.539
  EZG_390                   61.86       0.00       0.94      27.77      30.03       7.69      33.22        0.11     0.11   0.537
  EZG_350                   61.86       0.00       0.95      28.02      30.02       7.43      32.95        0.15     0.16   0.533
  EZG_370                   61.86       0.00       0.94      27.85      30.03       7.61      33.13        0.12     0.13   0.536
  EZG_398                   61.86       0.00       0.93      27.10      30.06       8.37      33.92        0.03     0.04   0.548
  EZG_382                   61.86       0.00       0.93      27.04      30.06       8.43      33.98        0.03     0.04   0.549
  EZG_374                   61.86       0.00       1.14      22.96      36.02       7.20      37.82        0.14     0.15   0.611
  EZG_412                   61.86       0.00       0.92      26.68      30.08       8.80      34.36        0.01     0.02   0.556
  EZG_344                   61.86       0.00       0.94      27.62      30.04       7.83      33.37        0.08     0.09   0.539
  EZG_376                   61.86       0.00       0.94      27.48      30.04       7.98      33.52        0.07     0.08   0.542
  EZG_356                   61.86       0.00       0.95      28.26      30.01       7.19      32.70        0.21     0.21   0.529
  EZG_386                   61.86       0.00       0.95      28.42      30.01       7.02      32.53        0.26     0.25   0.526
  EZG_380                   61.86       0.00       0.94      27.90      30.03       7.55      33.07        0.13     0.14   0.535
  EZG_378                   61.86       0.00       0.94      27.82      30.03       7.64      33.16        0.11     0.12   0.536
  EZG_414                   61.86       0.00       0.93      27.03      30.06       8.44      33.99        0.03     0.04   0.549
  EZG_402                   61.86       0.00       0.94      27.78      30.03       7.67      33.20        0.11     0.12   0.537
  EZG_358                   61.86       0.00       0.95      28.25      30.02       7.20      32.71        0.21     0.21   0.529
  EZG_364                   61.86       0.00       0.95      28.25      30.02       7.20      32.71        0.21     0.21   0.529
  EZG_410                   61.86       0.00       0.94      27.51      30.04       7.95      33.48        0.07     0.08   0.541
  EZG_366                   61.86       0.00       0.94      27.59      30.04       7.87      33.40        0.08     0.09   0.540
  EZG_18259                 61.86       0.00       0.94      27.58      30.04       7.87      33.41        0.08     0.09   0.540
  EZG_18258                 61.86       0.00       0.92      26.86      30.07       8.61      34.17        0.02     0.03   0.552
  EZG_346                   61.86       0.00       0.92      28.35      29.43       7.63      32.64        0.12     0.13   0.528
  EZG_348                   61.86       0.00       0.92      28.03      29.44       7.95      32.98        0.07     0.08   0.533
  
  
  ******************
  Node Depth Summary
  ******************
  
  ---------------------------------------------------------------------------------
                                 Average  Maximum  Maximum  Time of Max    Reported
                                   Depth    Depth      HGL   Occurrence   Max Depth
  Node                 Type       Meters   Meters   Meters  days hr:min      Meters
  ---------------------------------------------------------------------------------
  R0019466             JUNCTION     0.01     2.37    71.82     0  06:05        2.30
  R0019468             JUNCTION     0.01     2.36    71.67     0  06:05        2.29
  R0019831             JUNCTION     0.01     1.66    70.83     0  06:03        1.66
  R0019825             JUNCTION     0.01     1.50    70.34     0  06:02        1.50
  R0019843             JUNCTION     0.01     1.57    69.20     0  06:04        1.38
  R0019368             JUNCTION     0.02     1.72    68.51     0  06:04        1.55
  R0019369             JUNCTION     0.01     0.85    67.44     0  06:05        0.85
  R0019370             JUNCTION     0.01     0.63    66.53     0  06:05        0.63
  R0019345             JUNCTION     0.01     1.34    71.24     0  06:05        1.31
  R0019346             JUNCTION     0.01     1.16    70.96     0  06:05        1.12
  R0043600             JUNCTION     0.01     0.85    70.52     0  06:05        0.85
  R0019203             JUNCTION     0.01     0.85    70.39     0  06:05        0.84
  R0043594             JUNCTION     0.01     0.64    70.37     0  06:06        0.63
  R0021458             JUNCTION     0.01     0.73    70.38     0  06:06        0.68
  R0019202             JUNCTION     0.01     0.82    70.40     0  06:05        0.82
  R0019373             JUNCTION     0.01     1.96    71.63     0  06:05        1.85
  R0019254             JUNCTION     0.01     2.03    72.07     0  06:05        2.03
  R0019716             JUNCTION     0.01     1.12    70.13     0  06:05        1.00
  R0019946             JUNCTION     0.02     1.30    69.92     0  06:05        1.15
  R0013935             JUNCTION     0.01     1.62    70.45     0  06:03        1.62
  R0019939             JUNCTION     0.01     1.67    70.24     0  06:05        1.62
  R0019944             JUNCTION     0.01     1.13    69.41     0  06:05        0.95
  R0043703             JUNCTION     0.01     1.15    69.75     0  06:05        0.97
  R0019945             JUNCTION     0.01     1.10    69.50     0  06:05        0.95
  R0039621             JUNCTION     0.00     1.56    71.13     0  06:04        1.56
  R0019838             JUNCTION     0.01     1.80    71.26     0  06:04        1.76
  R0039606             JUNCTION     0.01     0.81    70.40     0  06:05        0.81
  R0019204             JUNCTION     0.00     0.00    69.91     0  00:00        0.00
  R0019205             JUNCTION     0.00     0.00    69.62     0  00:00        0.00
  R0019849             JUNCTION     0.01     1.47    69.99     0  06:05        1.39
  R0019371             JUNCTION     0.00     0.00    70.41     0  00:00        0.00
  R0019718             JUNCTION     0.02     0.95    70.37     0  06:05        0.89
  R0021442             JUNCTION     0.01     2.05    72.10     0  06:02        2.05
  R0019247             JUNCTION     0.01     1.24    71.12     0  06:05        1.24
  R0019719             JUNCTION     0.01     0.94    70.62     0  06:05        0.86
  R0019767             JUNCTION     0.01     0.67    65.40     0  06:06        0.67
  R0019768             JUNCTION     0.01     0.55    64.32     0  06:06        0.55
  R0021453             JUNCTION     0.00     0.48    70.43     0  06:07        0.46
  R0019839             JUNCTION     0.01     1.81    71.20     0  06:04        1.74
  R0019717             JUNCTION     0.01     0.93    70.27     0  06:05        0.85
  R0019252             JUNCTION     0.01     1.94    72.13     0  06:03        1.94
  R0019721             JUNCTION     0.01     1.24    71.11     0  06:05        1.22
  R0019942             JUNCTION     0.01     1.41    70.06     0  06:05        1.35
  R0019206             JUNCTION     0.00     0.03    69.10     0  06:04        0.01
  R0019840             JUNCTION     0.01     1.85    70.82     0  06:05        1.81
  R0043702             JUNCTION     0.01     2.01    70.71     0  06:05        1.98
  R0019723             JUNCTION     0.01     1.16    71.24     0  06:05        1.14
  R0019724             JUNCTION     0.00     1.10    71.26     0  06:05        1.08
  R0021433             JUNCTION     0.01     2.15    72.54     0  06:02        2.15
  R0021435             JUNCTION     0.01     2.11    72.29     0  06:02        2.11
  R0019769             OUTFALL      0.01     0.55    63.93     0  06:06        0.55
  
  
  *******************
  Node Inflow Summary
  *******************
  
  -------------------------------------------------------------------------------------------------
                                  Maximum  Maximum                  Lateral       Total        Flow
                                  Lateral    Total  Time of Max      Inflow      Inflow     Balance
                                   Inflow   Inflow   Occurrence      Volume      Volume       Error
  Node                 Type           CMS      CMS  days hr:min    10^6 ltr    10^6 ltr     Percent
  -------------------------------------------------------------------------------------------------
  R0019466             JUNCTION     0.144    0.144     0  06:05       0.136       0.218       0.032
  R0019468             JUNCTION     0.090    0.165     0  06:04        0.08       0.284      -0.013
  R0019831             JUNCTION     0.117    0.117     0  06:05       0.108       0.108       0.085
  R0019825             JUNCTION     0.117    0.217     0  06:05       0.108       0.214       0.092
  R0019843             JUNCTION     0.000    2.401     0  06:04           0        3.28      -0.025
  R0019368             JUNCTION     0.000    2.387     0  06:05           0        3.28      -0.026
  R0019369             JUNCTION     0.000    2.392     0  06:05           0        3.28      -0.011
  R0019370             JUNCTION     0.000    2.376     0  06:05           0        3.28       0.000
  R0019345             JUNCTION     0.000    0.160     0  06:03           0       0.201       0.014
  R0019346             JUNCTION     0.018    0.302     0  06:05      0.0137       0.344       0.007
  R0043600             JUNCTION     0.000    0.217     0  06:04           0       0.363      -0.077
  R0019203             JUNCTION     0.037    0.748     0  06:05        0.03        0.92      -0.012
  R0043594             JUNCTION     0.195    0.286     0  06:05       0.194       0.279      -0.016
  R0021458             JUNCTION     0.157    0.375     0  06:05       0.151       0.429      -0.006
  R0019202             JUNCTION     0.054    0.516     0  06:05      0.0457       0.526      -0.239
  R0019373             JUNCTION     0.127    0.198     0  06:05       0.119       0.133       0.832
  R0019254             JUNCTION     0.106    0.168     0  06:03      0.0969       0.201       0.026
  R0019716             JUNCTION     0.156    1.531     0  06:04        0.15        1.87      -0.002
  R0019946             JUNCTION     0.000    1.472     0  06:05           0        1.87      -0.002
  R0013935             JUNCTION     0.102    0.102     0  06:05      0.0924      0.0924       0.055
  R0019939             JUNCTION     0.041    0.123     0  06:03      0.0336       0.124      -0.054
  R0019944             JUNCTION     0.096    1.767     0  06:04      0.0859        2.38       0.017
  R0043703             JUNCTION     0.114    1.594     0  06:05       0.105        1.98      -0.006
  R0019945             JUNCTION     0.000    1.695     0  06:04           0        2.29      -0.001
  R0039621             JUNCTION     0.000    0.101     0  06:05           0      0.0075      -2.437
  R0019838             JUNCTION     0.208    0.210     0  06:04        0.21       0.214      -0.047
  R0039606             JUNCTION     0.000    0.417     0  06:08           0       0.429       0.034
  R0019204             JUNCTION     0.000    0.000     0  00:00           0           0       0.000 ltr
  R0019205             JUNCTION     0.000    0.000     0  00:00           0           0       0.000 ltr
  R0019849             JUNCTION     0.000    0.216     0  06:03           0       0.315      -0.000
  R0019371             JUNCTION     0.000    0.000     0  00:00           0           0       0.000 ltr
  R0019718             JUNCTION     0.136    0.845     0  06:05       0.129        1.05      -0.359
  R0021442             JUNCTION     0.148    0.220     0  06:05       0.143       0.308       0.020
  R0019247             JUNCTION     0.077    0.219     0  06:04      0.0668       0.363       0.095
  R0019719             JUNCTION     0.080    0.379     0  06:05      0.0703       0.415       0.459
  R0019767             JUNCTION     0.000    2.364     0  06:06           0        3.28      -0.003
  R0019768             JUNCTION     0.000    2.358     0  06:06           0        3.28       0.004
  R0021453             JUNCTION     0.094    0.094     0  06:05      0.0844       0.085      -0.052
  R0019839             JUNCTION     0.206    0.373     0  06:04       0.207       0.413       0.046
  R0019717             JUNCTION     0.251    1.441     0  06:05        0.26        1.72       0.049
  R0019252             JUNCTION     0.122    0.122     0  06:05       0.114       0.114      -0.009
  R0019721             JUNCTION     0.037    0.145     0  06:04      0.0296        0.13       0.075
  R0019942             JUNCTION     0.000    0.124     0  06:02           0        0.19      -0.176
  R0019206             JUNCTION     0.000    0.024     0  06:04           0     0.00011       8.626
  R0019840             JUNCTION     0.000    0.490     0  06:04           0       0.697      -0.014
  R0043702             JUNCTION     0.206    0.680     0  06:04       0.207       0.904       0.284
  R0019723             JUNCTION     0.089    0.112     0  06:05      0.0794         0.1      -0.106
  R0019724             JUNCTION     0.027    0.036     0  06:03      0.0209       0.021      -0.286
  R0021433             JUNCTION     0.127    0.127     0  06:05       0.119       0.119      -0.104
  R0021435             JUNCTION     0.083    0.155     0  06:05      0.0733       0.184      -0.045
  R0019769             OUTFALL      0.000    2.362     0  06:06           0        3.28       0.000
  
  
  **********************
  Node Surcharge Summary
  **********************
  
  Surcharging occurs when water rises above the top of the highest conduit.
  ---------------------------------------------------------------------
                                               Max. Height   Min. Depth
                                   Hours       Above Crown    Below Rim
  Node                 Type      Surcharged         Meters       Meters
  ---------------------------------------------------------------------
  R0019466             JUNCTION        0.20          2.075        0.435
  R0019468             JUNCTION        0.20          2.064        0.366
  R0019831             JUNCTION        0.14          1.360        0.000
  R0019825             JUNCTION        0.18          1.200        0.000
  R0019843             JUNCTION        0.08          0.669        1.951
  R0019368             JUNCTION        0.11          0.823        0.227
  R0019345             JUNCTION        0.13          1.041        0.709
  R0019346             JUNCTION        0.10          0.757        0.983
  R0043600             JUNCTION        0.12          0.452        2.128
  R0019373             JUNCTION        0.15          1.659        0.841
  R0019254             JUNCTION        0.15          1.731        0.099
  R0019716             JUNCTION        0.04          0.216        1.504
  R0019946             JUNCTION        0.08          0.400        1.120
  R0013935             JUNCTION        0.15          1.320        0.000
  R0019939             JUNCTION        0.20          1.375        0.245
  R0019944             JUNCTION        0.03          0.230        1.300
  R0043703             JUNCTION        0.02          0.247        1.073
  R0019945             JUNCTION        0.03          0.197        1.263
  R0039621             JUNCTION        0.05          1.060        0.000
  R0019838             JUNCTION        0.06          1.300        0.000
  R0019849             JUNCTION        0.22          1.173        0.757
  R0019718             JUNCTION        0.01          0.054        1.946
  R0021442             JUNCTION        0.22          1.750        0.000
  R0019247             JUNCTION        0.14          0.841        1.019
  R0019719             JUNCTION        0.07          0.435        1.365
  R0019839             JUNCTION        0.06          1.312        0.338
  R0019252             JUNCTION        0.13          1.640        0.000
  R0019721             JUNCTION        0.10          0.837        0.723
  R0019942             JUNCTION        0.19          1.112        0.538
  R0019840             JUNCTION        0.09          1.347        1.223
  R0043702             JUNCTION        0.11          1.514        1.396
  R0019723             JUNCTION        0.07          0.761        0.559
  R0019724             JUNCTION        0.07          0.798        0.652
  R0021433             JUNCTION        0.17          1.850        0.000
  R0021435             JUNCTION        0.20          1.810        0.000
  
  
  *********************
  Node Flooding Summary
  *********************
  
  Flooding refers to all water that overflows a node, whether it ponds or not.
  --------------------------------------------------------------------------
                                                             Total   Maximum
                                 Maximum   Time of Max       Flood    Ponded
                        Hours       Rate    Occurrence      Volume     Depth
  Node                 Flooded       CMS   days hr:min    10^6 ltr    Meters
  --------------------------------------------------------------------------
  R0019831                0.03     0.016      0  06:05       0.001     0.000
  R0019825                0.08     0.126      0  06:05       0.024     0.000
  R0013935                0.03     0.025      0  06:05       0.002     0.000
  R0039621                0.02     0.100      0  06:05       0.004     0.000
  R0019838                0.01     0.035      0  06:04       0.000     0.000
  R0021442                0.07     0.078      0  06:05       0.012     0.000
  R0019252                0.06     0.084      0  06:05       0.010     0.000
  R0021433                0.07     0.056      0  06:05       0.009     0.000
  R0021435                0.09     0.082      0  06:05       0.019     0.000
  
  
  ***********************
  Outfall Loading Summary
  ***********************
  
  -----------------------------------------------------------
                         Flow       Avg       Max       Total
                         Freq      Flow      Flow      Volume
  Outfall Node           Pcnt       CMS       CMS    10^6 ltr
  -----------------------------------------------------------
  R0019769              18.18     0.066     2.362       3.284
  -----------------------------------------------------------
  System                18.18     0.066     2.362       3.284
  
  
  ********************
  Link Flow Summary
  ********************
  
  -----------------------------------------------------------------------------
                                 Maximum  Time of Max   Maximum    Max/    Max/
                                  |Flow|   Occurrence   |Veloc|    Full    Full
  Link                 Type          CMS  days hr:min     m/sec    Flow   Depth
  -----------------------------------------------------------------------------
  H0014431             CONDUIT     0.083     0  06:03      1.18    1.54    1.00
  H0014433             CONDUIT     0.100     0  06:05      1.42    1.28    1.00
  H0014352             CONDUIT     2.387     0  06:05      3.75    0.98    1.00
  H0014373             CONDUIT     2.376     0  06:05      4.30    1.10    0.82
  H0017981             CONDUIT     0.158     0  06:03      2.24    4.48    1.00
  H0017755             CONDUIT     0.216     0  06:05      1.72    1.75    1.00
  H0017791             CONDUIT     0.294     0  06:07      0.72    0.43    0.74
  H0017357             CONDUIT     0.190     0  06:05      2.69    3.04    1.00
  H0018216             CONDUIT     0.160     0  06:03      2.27    2.92    1.00
  H0016792             CONDUIT     1.472     0  06:05      2.31    0.85    1.00
  H0019507             CONDUIT     0.085     0  06:03      1.21    1.19    1.00
  H0019998             CONDUIT     1.809     0  06:04      3.48    0.72    1.00
  H0019576             CONDUIT     1.496     0  06:05      2.61    1.01    1.00
  H0020087             CONDUIT     0.101     0  06:05      0.51    0.44    1.00
  H0020211             CONDUIT     1.484     0  06:05      2.33    3.70    1.00
  H0018982             CONDUIT     0.417     0  06:08      0.94    0.67    0.83
  H0018753             CONDUIT     0.073     0  06:05      1.03    1.04    1.00
  H0018845             CONDUIT     0.000     0  00:00      0.00    0.00    0.00
  H0018863             CONDUIT     0.120     0  06:04      1.70    2.82    1.00
  H0019156             CONDUIT     0.000     0  00:00      0.00    0.00    0.00
  H0018929             CONDUIT     0.718     0  06:08      1.47    0.62    0.97
  H0018440             CONDUIT     0.159     0  06:02      2.25    2.85    1.00
  H0018456             CONDUIT     0.299     0  06:05      2.38    1.82    1.00
  H0018968             CONDUIT     2.358     0  06:06      5.12    0.91    0.68
  H0022036             CONDUIT     0.130     0  06:07      0.56    0.10    0.60
  H0021806             CONDUIT     0.217     0  06:04      1.73    1.93    1.00
  H0022111             CONDUIT     0.180     0  06:05      0.91    1.28    1.00
  H0021440             CONDUIT     1.378     0  06:04      2.55    0.89    1.00
  H0021704             CONDUIT     0.822     0  06:05      1.75    1.57    1.00
  H0020521             CONDUIT     0.081     0  06:03      1.15    1.65    1.00
  H0020755             CONDUIT     0.143     0  06:05      1.14    1.58    1.00
  H0020530             CONDUIT     2.392     0  06:05      3.76    2.05    1.00
  H0020618             CONDUIT     1.685     0  06:07      3.35    1.04    1.00
  H0021163             CONDUIT     0.124     0  06:02      1.75    2.07    1.00
  H0020497             CONDUIT     0.024     0  06:04      0.33    0.05    1.00
  H0024325             CONDUIT     0.346     0  06:04      1.86    1.03    1.00
  H0023585             CONDUIT     0.669     0  06:04      3.41    1.54    1.00
  H0024098             CONDUIT     0.213     0  06:03      3.01    2.48    1.00
  H0024235             CONDUIT     0.375     0  06:04      1.91    1.54    1.00
  H0024282             CONDUIT     0.000     0  00:00      0.00    0.00    0.05
  H0024308             CONDUIT     2.362     0  06:06      5.79    0.69    0.61
  H0024498             CONDUIT     0.159     0  06:03      2.24    2.46    1.00
  H0026990             CONDUIT     0.109     0  06:05      0.87    0.83    1.00
  H0041650             CONDUIT     0.516     0  06:08      1.14    0.60    0.93
  H0041011             CONDUIT     0.116     0  06:02      1.64    1.15    1.00
  H0045103             CONDUIT     0.451     0  06:08      1.02    0.57    0.91
  H0045104             CONDUIT     2.364     0  06:06      4.80    0.84    0.72
  H0045105             CONDUIT     0.027     0  06:05      0.46    0.47    1.00
  H0045106             CONDUIT     0.476     0  06:04      2.43    0.64    1.00
  H0045107             CONDUIT     0.072     0  06:06      1.01    1.18    1.00
  H0045108             CONDUIT     0.090     0  06:08      1.28    1.62    1.00
  
  
  ***************************
  Flow Classification Summary
  ***************************
  
  -------------------------------------------------------------------------------------
                      Adjusted    ---------- Fraction of Time in Flow Class ---------- 
                       /Actual         Up    Down  Sub   Sup   Up    Down  Norm  Inlet 
  Conduit               Length    Dry  Dry   Dry   Crit  Crit  Crit  Crit  Ltd   Ctrl  
  -------------------------------------------------------------------------------------
  H0014431                1.00   0.03  0.00  0.00  0.97  0.00  0.00  0.00  0.96  0.00
  H0014433                1.00   0.03  0.00  0.00  0.97  0.00  0.00  0.00  0.96  0.00
  H0014352                1.00   0.03  0.00  0.00  0.81  0.16  0.00  0.00  0.96  0.00
  H0014373                1.00   0.04  0.00  0.00  0.79  0.18  0.00  0.00  0.78  0.00
  H0017981                1.00   0.04  0.00  0.00  0.00  0.00  0.00  0.96  0.00  0.00
  H0017755                1.00   0.04  0.00  0.00  0.00  0.00  0.00  0.96  0.00  0.00
  H0017791                1.00   0.03  0.00  0.00  0.97  0.00  0.00  0.00  0.96  0.00
  H0017357                1.00   0.03  0.96  0.00  0.00  0.00  0.00  0.00  0.92  0.00
  H0018216                1.00   0.03  0.78  0.00  0.18  0.00  0.00  0.00  0.96  0.00
  H0016792                1.00   0.03  0.78  0.00  0.19  0.00  0.00  0.00  0.96  0.00
  H0019507                1.00   0.03  0.00  0.00  0.97  0.00  0.00  0.00  0.96  0.00
  H0019998                1.00   0.03  0.00  0.00  0.79  0.17  0.00  0.00  0.19  0.00
  H0019576                1.00   0.03  0.00  0.00  0.81  0.15  0.00  0.00  0.17  0.00
  H0020087                1.00   0.03  0.95  0.00  0.02  0.00  0.00  0.00  0.92  0.00
  H0020211                1.00   0.03  0.00  0.00  0.97  0.00  0.00  0.00  0.77  0.00
  H0018982                1.00   0.03  0.00  0.00  0.97  0.00  0.00  0.00  0.80  0.00
  H0018753                1.00   0.03  0.00  0.00  0.97  0.00  0.00  0.00  0.96  0.00
  H0018845                1.00   1.00  0.00  0.00  0.00  0.00  0.00  0.00  0.00  0.00
  H0018863                1.00   0.03  0.00  0.00  0.97  0.00  0.00  0.00  0.96  0.00
  H0019156                1.00   1.00  0.00  0.00  0.00  0.00  0.00  0.00  0.00  0.00
  H0018929                1.00   0.03  0.78  0.00  0.18  0.00  0.00  0.00  0.96  0.00
  H0018440                1.00   0.03  0.00  0.00  0.97  0.00  0.00  0.00  0.96  0.00
  H0018456                1.00   0.03  0.00  0.00  0.97  0.00  0.00  0.00  0.96  0.00
  H0018968                1.00   0.04  0.00  0.00  0.78  0.18  0.00  0.00  0.79  0.00
  H0022036                1.00   0.03  0.00  0.00  0.05  0.03  0.00  0.89  0.03  0.00
  H0021806                1.00   0.03  0.78  0.00  0.18  0.00  0.00  0.00  0.82  0.00
  H0022111                1.00   0.03  0.00  0.00  0.97  0.00  0.00  0.00  0.00  0.00
  H0021440                1.00   0.03  0.00  0.00  0.81  0.16  0.00  0.00  0.02  0.00
  H0021704                1.00   0.03  0.00  0.00  0.00  0.00  0.00  0.96  0.00  0.00
  H0020521                1.00   0.03  0.00  0.00  0.97  0.00  0.00  0.00  0.96  0.00
  H0020755                1.00   0.03  0.79  0.00  0.18  0.00  0.00  0.00  0.96  0.00
  H0020530                1.00   0.03  0.00  0.00  0.81  0.16  0.00  0.00  0.01  0.00
  H0020618                1.00   0.03  0.00  0.00  0.80  0.17  0.00  0.00  0.80  0.00
  H0021163                1.00   0.03  0.00  0.00  0.95  0.01  0.00  0.00  0.79  0.00
  H0020497                1.20   0.03  0.96  0.00  0.00  0.00  0.00  0.00  0.92  0.00
  H0024325                1.00   0.03  0.00  0.00  0.81  0.16  0.00  0.00  0.80  0.00
  H0023585                1.00   0.03  0.00  0.00  0.00  0.00  0.00  0.96  0.00  0.00
  H0024098                1.00   0.03  0.78  0.00  0.18  0.00  0.00  0.00  0.96  0.00
  H0024235                1.00   0.03  0.00  0.00  0.00  0.00  0.00  0.96  0.00  0.00
  H0024282                1.00   1.00  0.00  0.00  0.00  0.00  0.00  0.00  0.00  0.00
  H0024308                1.00   0.04  0.00  0.00  0.77  0.19  0.00  0.00  0.07  0.00
  H0024498                1.00   0.03  0.00  0.00  0.00  0.00  0.00  0.96  0.00  0.00
  H0026990                1.00   0.03  0.00  0.00  0.97  0.00  0.00  0.00  0.96  0.00
  H0041650                1.00   0.82  0.01  0.00  0.17  0.00  0.00  0.00  0.95  0.00
  H0041011                1.00   0.04  0.00  0.00  0.96  0.00  0.00  0.00  0.96  0.00
  H0045103                1.00   0.03  0.00  0.00  0.97  0.00  0.00  0.00  0.81  0.00
  H0045104                1.00   0.04  0.00  0.00  0.78  0.18  0.00  0.00  0.19  0.00
  H0045105                1.00   0.03  0.00  0.00  0.97  0.00  0.00  0.00  0.96  0.00
  H0045106                1.00   0.03  0.00  0.00  0.80  0.16  0.00  0.00  0.96  0.00
  H0045107                1.00   0.03  0.00  0.00  0.97  0.00  0.00  0.00  0.96  0.00
  H0045108                1.00   0.03  0.00  0.00  0.97  0.00  0.00  0.00  0.96  0.00
  
  
  *************************
  Conduit Surcharge Summary
  *************************
  
  ----------------------------------------------------------------------------
                                                           Hours        Hours 
                         --------- Hours Full --------   Above Full   Capacity
  Conduit                Both Ends  Upstream  Dnstream   Normal Flow   Limited
  ----------------------------------------------------------------------------
  H0014431                    0.20      0.20      0.20      0.21         0.18
  H0014433                    0.14      0.14      0.18      0.06         0.06
  H0014352                    0.08      0.08      0.11      0.01         0.01
  H0014373                    0.01      0.01      0.01      0.06         0.01
  H0017981                    0.11      0.13      0.11      0.25         0.13
  H0017755                    0.11      0.12      0.11      0.16         0.12
  H0017357                    0.08      0.08      0.15      0.10         0.01
  H0018216                    0.13      0.15      0.13      0.18         0.14
  H0016792                    0.04      0.04      0.08      0.01         0.01
  H0019507                    0.15      0.15      0.20      0.04         0.04
  H0019998                    0.03      0.03      0.08      0.01         0.01
  H0019576                    0.02      0.02      0.03      0.01         0.01
  H0020087                    0.05      0.05      0.06      0.01         0.01
  H0020211                    0.02      0.08      0.02      0.21         0.04
  H0018753                    0.15      0.15      0.20      0.01         0.01
  H0018863                    0.20      0.20      0.22      0.13         0.13
  H0018929                    0.01      0.01      0.01      0.01         0.01
  H0018440                    0.17      0.22      0.17      0.27         0.20
  H0018456                    0.10      0.10      0.10      0.12         0.10
  H0021806                    0.12      0.14      0.12      0.16         0.14
  H0022111                    0.06      0.06      0.06      0.04         0.03
  H0021440                    0.01      0.01      0.04      0.01         0.01
  H0021704                    0.01      0.01      0.01      0.12         0.01
  H0020521                    0.13      0.13      0.15      0.09         0.09
  H0020755                    0.10      0.10      0.10      0.05         0.05
  H0020530                    0.01      0.11      0.01      0.15         0.10
  H0020618                    0.02      0.03      0.03      0.05         0.01
  H0021163                    0.17      0.18      0.19      0.17         0.15
  H0020497                    0.01      0.01     69.92      0.01         0.01
  H0024325                    0.06      0.06      0.09      0.01         0.01
  H0023585                    0.08      0.11      0.08      0.12         0.10
  H0024098                    0.22      0.22      0.26      0.18         0.17
  H0024235                    0.06      0.07      0.06      0.08         0.07
  H0024498                    0.09      0.20      0.09      0.23         0.16
  H0026990                    0.07      0.07      0.10      0.01         0.01
  H0041011                    0.19      0.19      0.22      0.04         0.04
  H0045105                    0.07      0.07      0.08      0.01         0.01
  H0045106                    0.09      0.09      0.11      0.01         0.01
  H0045107                    0.17      0.17      0.20      0.08         0.08
  H0045108                    0.20      0.20      0.22      0.16         0.16
  

  Analysis begun on:  Fri Mar 22 15:56:15 2024
  Analysis ended on:  Fri Mar 22 15:56:25 2024
  Total elapsed time: 00:00:10