
  EPA STORM WATER MANAGEMENT MODEL - VERSION 5.2 (Build 5.2.4)
  PYSWMM TOOLKIT API - VERSION v1.0 (2023-11-27)
  ------------------------------------------------------------

  Gievenbeck_e2_T20D45 
  
  ****************
  Analysis Options
  ****************
  Flow Units ............... CMS
  Process Models:
    Rainfall/Runoff ........ YES
    RDII ................... NO
    Snowmelt ............... NO
    Groundwater ............ NO
    Flow Routing ........... YES
    Ponding Allowed ........ NO
    Water Quality .......... NO
  Infiltration Method ...... HORTON
  Flow Routing Method ...... DYNWAVE
  Surcharge Method ......... SLOT
  Starting Date ............ 01/01/2024 00:00:00
  Ending Date .............. 01/04/2024 04:00:00
  Antecedent Dry Days ...... 14.0
  Report Time Step ......... 00:01:00
  Wet Time Step ............ 00:01:00
  Dry Time Step ............ 00:01:00
  Routing Time Step ........ 1.00 sec
  Variable Time Step ....... YES
  Maximum Trials ........... 8
  Number of Threads ........ 1
  Head Tolerance ........... 0.001500 m
  
  
  **************************        Volume         Depth
  Runoff Quantity Continuity     hectare-m            mm
  **************************     ---------       -------
  Total Precipitation ......         0.306        30.210
  Evaporation Loss .........         0.010         0.965
  Infiltration Loss ........         0.140        13.869
  Surface Runoff ...........         0.156        15.438
  Final Storage ............         0.000         0.000
  Continuity Error (%) .....        -0.207
  
  
  **************************        Volume        Volume
  Flow Routing Continuity        hectare-m      10^6 ltr
  **************************     ---------     ---------
  Dry Weather Inflow .......         0.000         0.000
  Wet Weather Inflow .......         0.156         1.563
  Groundwater Inflow .......         0.000         0.000
  RDII Inflow ..............         0.000         0.000
  External Inflow ..........         0.000         0.000
  External Outflow .........         0.154         1.540
  Flooding Loss ............         0.002         0.023
  Evaporation Loss .........         0.000         0.000
  Exfiltration Loss ........         0.000         0.000
  Initial Stored Volume ....         0.000         0.000
  Final Stored Volume ......         0.000         0.000
  Continuity Error (%) .....        -0.012
  
  
  *************************
  Highest Continuity Errors
  *************************
  Node R0019373 (1.83%)
  Node R0019718 (-1.50%)
  
  
  ***************************
  Time-Step Critical Elements
  ***************************
  None
  
  
  ********************************
  Highest Flow Instability Indexes
  ********************************
  All links are stable.
  
  
  *********************************
  Most Frequent Nonconverging Nodes
  *********************************
  Convergence obtained at all time steps.
  
  
  *************************
  Routing Time Step Summary
  *************************
  Minimum Time Step           :     0.40 sec
  Average Time Step           :     1.00 sec
  Maximum Time Step           :     1.00 sec
  % of Time in Steady State   :     0.00
  Average Iterations per Step :     2.00
  % of Steps Not Converging   :     0.00
  Time Step Frequencies       :
      1.000 -  0.871 sec      :    99.99 %
      0.871 -  0.758 sec      :     0.00 %
      0.758 -  0.660 sec      :     0.00 %
      0.660 -  0.574 sec      :     0.00 %
      0.574 -  0.500 sec      :     0.00 %
  
  
  ***************************
  Subcatchment Runoff Summary
  ***************************
  
  ------------------------------------------------------------------------------------------------------------------------------
                            Total      Total      Total      Total     Imperv       Perv      Total       Total     Peak  Runoff
                           Precip      Runon       Evap      Infil     Runoff     Runoff     Runoff      Runoff   Runoff   Coeff
  Subcatchment                 mm         mm         mm         mm         mm         mm         mm    10^6 ltr      CMS
  ------------------------------------------------------------------------------------------------------------------------------
  EZG_368                   30.21       0.00       0.96      13.97      14.20       3.27      15.34        0.06     0.11   0.508
  EZG_392                   30.21       0.00       0.96      13.87      14.20       3.38      15.45        0.05     0.09   0.511
  EZG_352                   30.21       0.00       0.97      14.14      14.19       3.10      15.16        0.09     0.15   0.502
  EZG_372                   30.21       0.00       0.94      13.53      14.22       3.73      15.82        0.02     0.04   0.524
  EZG_416                   30.21       0.00       0.95      13.82      14.21       3.42      15.50        0.05     0.08   0.513
  EZG_388                   30.21       0.00       0.96      14.02      14.20       3.22      15.29        0.07     0.12   0.506
  EZG_394                   30.21       0.00       0.95      13.80      14.21       3.45      15.52        0.04     0.08   0.514
  EZG_400                   30.21       0.00       0.95      13.77      14.21       3.48      15.55        0.04     0.07   0.515
  EZG_390                   30.21       0.00       0.95      13.86      14.20       3.39      15.46        0.05     0.09   0.512
  EZG_350                   30.21       0.00       0.96      14.02      14.20       3.22      15.28        0.07     0.12   0.506
  EZG_370                   30.21       0.00       0.96      13.91      14.20       3.33      15.40        0.06     0.10   0.510
  EZG_398                   30.21       0.00       0.94      13.42      14.23       3.84      15.94        0.02     0.03   0.528
  EZG_382                   30.21       0.00       0.94      13.38      14.23       3.88      15.98        0.01     0.03   0.529
  EZG_374                   30.21       0.00       1.15      11.23      17.03       3.42      17.89        0.07     0.12   0.592
  EZG_412                   30.21       0.00       0.93      13.13      14.25       4.16      16.27        0.01     0.01   0.539
  EZG_344                   30.21       0.00       0.95      13.77      14.21       3.48      15.56        0.04     0.07   0.515
  EZG_376                   30.21       0.00       0.95      13.67      14.22       3.58      15.66        0.03     0.06   0.518
  EZG_356                   30.21       0.00       0.97      14.18      14.19       3.06      15.11        0.10     0.16   0.500
  EZG_386                   30.21       0.00       0.97      14.29      14.18       2.94      15.00        0.12     0.20   0.496
  EZG_380                   30.21       0.00       0.96      13.95      14.20       3.30      15.37        0.06     0.11   0.509
  EZG_378                   30.21       0.00       0.96      13.89      14.20       3.35      15.43        0.05     0.09   0.511
  EZG_414                   30.21       0.00       0.94      13.38      14.23       3.89      15.99        0.01     0.03   0.529
  EZG_402                   30.21       0.00       0.96      13.87      14.20       3.38      15.45        0.05     0.09   0.511
  EZG_358                   30.21       0.00       0.97      14.18      14.19       3.06      15.12        0.10     0.16   0.501
  EZG_364                   30.21       0.00       0.97      14.18      14.19       3.06      15.12        0.10     0.16   0.500
  EZG_410                   30.21       0.00       0.95      13.69      14.21       3.56      15.64        0.03     0.06   0.518
  EZG_366                   30.21       0.00       0.95      13.74      14.21       3.51      15.59        0.04     0.07   0.516
  EZG_18259                 30.21       0.00       0.95      13.74      14.21       3.51      15.59        0.04     0.07   0.516
  EZG_18258                 30.21       0.00       0.93      13.26      14.24       4.02      16.12        0.01     0.02   0.534
  EZG_346                   30.21       0.00       0.94      14.19      13.92       3.32      15.15        0.06     0.10   0.501
  EZG_348                   30.21       0.00       0.93      13.98      13.93       3.53      15.37        0.03     0.06   0.509
  
  
  ******************
  Node Depth Summary
  ******************
  
  ---------------------------------------------------------------------------------
                                 Average  Maximum  Maximum  Time of Max    Reported
                                   Depth    Depth      HGL   Occurrence   Max Depth
  Node                 Type       Meters   Meters   Meters  days hr:min      Meters
  ---------------------------------------------------------------------------------
  R0019466             JUNCTION     0.00     1.35    70.80     0  02:20        1.31
  R0019468             JUNCTION     0.00     1.26    70.57     0  02:20        1.21
  R0019831             JUNCTION     0.00     1.56    70.73     0  02:20        1.56
  R0019825             JUNCTION     0.00     1.50    70.34     0  02:18        1.50
  R0019843             JUNCTION     0.00     1.06    68.69     0  02:21        0.89
  R0019368             JUNCTION     0.01     1.36    68.15     0  02:20        1.23
  R0019369             JUNCTION     0.00     0.70    67.29     0  02:21        0.69
  R0019370             JUNCTION     0.00     0.58    66.48     0  02:21        0.57
  R0019345             JUNCTION     0.00     1.01    70.91     0  02:20        0.91
  R0019346             JUNCTION     0.00     0.79    70.59     0  02:20        0.69
  R0043600             JUNCTION     0.00     0.57    70.24     0  02:20        0.56
  R0019203             JUNCTION     0.00     0.58    70.12     0  02:20        0.57
  R0043594             JUNCTION     0.00     0.43    70.16     0  02:21        0.43
  R0021458             JUNCTION     0.00     0.50    70.15     0  02:20        0.50
  R0019202             JUNCTION     0.00     0.55    70.13     0  02:20        0.54
  R0019373             JUNCTION     0.00     1.07    70.74     0  02:20        1.04
  R0019254             JUNCTION     0.00     1.80    71.84     0  02:20        1.79
  R0019716             JUNCTION     0.00     0.65    69.66     0  02:20        0.65
  R0019946             JUNCTION     0.01     0.91    69.53     0  02:20        0.91
  R0013935             JUNCTION     0.00     1.39    70.22     0  02:20        1.37
  R0019939             JUNCTION     0.00     1.40    69.97     0  02:20        1.38
  R0019944             JUNCTION     0.00     0.59    68.87     0  02:21        0.58
  R0043703             JUNCTION     0.00     0.68    69.28     0  02:21        0.68
  R0019945             JUNCTION     0.00     0.69    69.09     0  02:21        0.69
  R0039621             JUNCTION     0.00     0.31    69.88     0  02:20        0.31
  R0019838             JUNCTION     0.00     0.42    69.88     0  02:20        0.42
  R0039606             JUNCTION     0.00     0.54    70.13     0  02:20        0.53
  R0019204             JUNCTION     0.00     0.00    69.91     0  00:00        0.00
  R0019205             JUNCTION     0.00     0.00    69.62     0  00:00        0.00
  R0019849             JUNCTION     0.00     1.19    69.71     0  02:20        1.16
  R0019371             JUNCTION     0.00     0.00    70.41     0  00:00        0.00
  R0019718             JUNCTION     0.00     0.67    70.09     0  02:20        0.66
  R0021442             JUNCTION     0.00     2.05    72.10     0  02:18        2.05
  R0019247             JUNCTION     0.00     1.07    70.95     0  02:20        1.07
  R0019719             JUNCTION     0.00     0.61    70.29     0  02:20        0.55
  R0019767             JUNCTION     0.00     0.61    65.34     0  02:21        0.61
  R0019768             JUNCTION     0.00     0.51    64.28     0  02:22        0.51
  R0021453             JUNCTION     0.00     0.23    70.18     0  02:20        0.22
  R0019839             JUNCTION     0.00     0.46    69.85     0  02:20        0.41
  R0019717             JUNCTION     0.00     0.61    69.95     0  02:20        0.60
  R0019252             JUNCTION     0.00     1.94    72.13     0  02:19        1.94
  R0019721             JUNCTION     0.00     0.83    70.70     0  02:20        0.71
  R0019942             JUNCTION     0.00     1.19    69.84     0  02:20        1.16
  R0019206             JUNCTION     0.00     0.00    69.07     0  00:00        0.00
  R0019840             JUNCTION     0.00     0.75    69.72     0  02:19        0.73
  R0043702             JUNCTION     0.00     0.97    69.67     0  02:20        0.94
  R0019723             JUNCTION     0.00     0.69    70.77     0  02:20        0.60
  R0019724             JUNCTION     0.00     0.62    70.78     0  02:20        0.53
  R0021433             JUNCTION     0.00     2.15    72.54     0  02:18        2.15
  R0021435             JUNCTION     0.00     2.11    72.29     0  02:18        2.11
  R0019769             OUTFALL      0.00     0.51    63.89     0  02:22        0.50
  
  
  *******************
  Node Inflow Summary
  *******************
  
  -------------------------------------------------------------------------------------------------
                                  Maximum  Maximum                  Lateral       Total        Flow
                                  Lateral    Total  Time of Max      Inflow      Inflow     Balance
                                   Inflow   Inflow   Occurrence      Volume      Volume       Error
  Node                 Type           CMS      CMS  days hr:min    10^6 ltr    10^6 ltr     Percent
  -------------------------------------------------------------------------------------------------
  R0019466             JUNCTION     0.111    0.111     0  02:20      0.0634      0.0936       0.104
  R0019468             JUNCTION     0.069    0.147     0  02:19      0.0373       0.126      -0.050
  R0019831             JUNCTION     0.089    0.089     0  02:20        0.05        0.05       0.144
  R0019825             JUNCTION     0.090    0.177     0  02:20      0.0502         0.1       0.236
  R0019843             JUNCTION     0.000    2.082     0  02:21           0        1.54      -0.019
  R0019368             JUNCTION     0.000    2.105     0  02:20           0        1.54      -0.028
  R0019369             JUNCTION     0.000    2.078     0  02:21           0        1.54      -0.031
  R0019370             JUNCTION     0.000    2.065     0  02:21           0        1.54       0.005
  R0019345             JUNCTION     0.000    0.156     0  02:20           0      0.0975       0.061
  R0019346             JUNCTION     0.014    0.262     0  02:20     0.00649       0.165       0.013
  R0043600             JUNCTION     0.000    0.211     0  02:20           0       0.173      -0.087
  R0019203             JUNCTION     0.029    0.626     0  02:20      0.0141       0.437      -0.009
  R0043594             JUNCTION     0.151    0.208     0  02:19      0.0895       0.129      -0.103
  R0021458             JUNCTION     0.121    0.278     0  02:20      0.0702       0.199      -0.004
  R0019202             JUNCTION     0.042    0.402     0  02:20      0.0214       0.249      -0.477
  R0019373             JUNCTION     0.098    0.124     0  02:20      0.0552      0.0598       1.868
  R0019254             JUNCTION     0.081    0.162     0  02:19      0.0452      0.0976       0.047
  R0019716             JUNCTION     0.121    1.275     0  02:20      0.0697       0.885      -0.022
  R0019946             JUNCTION     0.000    1.265     0  02:20           0       0.886       0.013
  R0013935             JUNCTION     0.078    0.078     0  02:20      0.0431      0.0431       0.119
  R0019939             JUNCTION     0.032    0.105     0  02:20      0.0158      0.0588      -0.120
  R0019944             JUNCTION     0.073    1.560     0  02:21      0.0401        1.13       0.016
  R0043703             JUNCTION     0.088    1.324     0  02:20      0.0489       0.934       0.009
  R0019945             JUNCTION     0.000    1.517     0  02:21           0        1.09      -0.008
  R0039621             JUNCTION     0.000    0.011     0  02:16           0     0.00204       0.488
  R0019838             JUNCTION     0.162    0.162     0  02:20      0.0968      0.0989      -0.029
  R0039606             JUNCTION     0.000    0.264     0  02:21           0       0.199       0.077
  R0019204             JUNCTION     0.000    0.000     0  00:00           0           0       0.000 ltr
  R0019205             JUNCTION     0.000    0.000     0  00:00           0           0       0.000 ltr
  R0019849             JUNCTION     0.000    0.205     0  02:20           0       0.152       0.023
  R0019371             JUNCTION     0.000    0.000     0  00:00           0           0       0.000 ltr
  R0019718             JUNCTION     0.105    0.706     0  02:20      0.0598       0.497      -1.478
  R0021442             JUNCTION     0.119    0.191     0  02:20      0.0678       0.145       0.043
  R0019247             JUNCTION     0.058    0.212     0  02:20      0.0312       0.173       0.100
  R0019719             JUNCTION     0.061    0.312     0  02:20      0.0328       0.198       0.662
  R0019767             JUNCTION     0.000    2.076     0  02:21           0        1.54      -0.007
  R0019768             JUNCTION     0.000    2.079     0  02:22           0        1.54       0.013
  R0021453             JUNCTION     0.072    0.072     0  02:20      0.0394      0.0394      -0.016
  R0019839             JUNCTION     0.161    0.309     0  02:20      0.0957       0.193       0.023
  R0019717             JUNCTION     0.196    1.179     0  02:20        0.12       0.821       0.598
  R0019252             JUNCTION     0.094    0.094     0  02:20      0.0529      0.0529      -0.071
  R0019721             JUNCTION     0.028    0.108     0  02:20      0.0139       0.061       0.085
  R0019942             JUNCTION     0.000    0.123     0  02:18           0      0.0927      -0.355
  R0019206             JUNCTION     0.000    0.000     0  00:00           0           0       0.000 ltr
  R0019840             JUNCTION     0.000    0.429     0  02:19           0       0.319      -0.019
  R0043702             JUNCTION     0.161    0.578     0  02:19      0.0958       0.415       0.552
  R0019723             JUNCTION     0.068    0.089     0  02:20       0.037      0.0469      -0.251
  R0019724             JUNCTION     0.021    0.022     0  02:19     0.00987     0.00988      -0.319
  R0021433             JUNCTION     0.097    0.097     0  02:20      0.0551      0.0551      -0.131
  R0021435             JUNCTION     0.063    0.135     0  02:20      0.0342      0.0869      -0.128
  R0019769             OUTFALL      0.000    2.087     0  02:22           0        1.54       0.000
  
  
  **********************
  Node Surcharge Summary
  **********************
  
  Surcharging occurs when water rises above the top of the highest conduit.
  ---------------------------------------------------------------------
                                               Max. Height   Min. Depth
                                   Hours       Above Crown    Below Rim
  Node                 Type      Surcharged         Meters       Meters
  ---------------------------------------------------------------------
  R0019466             JUNCTION        0.18          1.048        1.462
  R0019468             JUNCTION        0.17          0.963        1.467
  R0019831             JUNCTION        0.11          1.260        0.100
  R0019825             JUNCTION        0.15          1.200        0.000
  R0019843             JUNCTION        0.01          0.164        2.456
  R0019368             JUNCTION        0.06          0.464        0.586
  R0019345             JUNCTION        0.11          0.714        1.036
  R0019346             JUNCTION        0.07          0.390        1.350
  R0043600             JUNCTION        0.09          0.172        2.408
  R0019373             JUNCTION        0.11          0.766        1.734
  R0019254             JUNCTION        0.13          1.500        0.330
  R0019946             JUNCTION        0.01          0.013        1.507
  R0013935             JUNCTION        0.11          1.093        0.227
  R0019939             JUNCTION        0.18          1.103        0.517
  R0019849             JUNCTION        0.19          0.894        1.036
  R0021442             JUNCTION        0.20          1.750        0.000
  R0019247             JUNCTION        0.12          0.670        1.190
  R0019719             JUNCTION        0.02          0.114        1.686
  R0019252             JUNCTION        0.11          1.640        0.000
  R0019721             JUNCTION        0.06          0.434        1.126
  R0019942             JUNCTION        0.16          0.888        0.762
  R0019840             JUNCTION        0.04          0.253        2.317
  R0043702             JUNCTION        0.06          0.470        2.440
  R0019723             JUNCTION        0.03          0.290        1.030
  R0019724             JUNCTION        0.03          0.317        1.133
  R0021433             JUNCTION        0.15          1.850        0.000
  R0021435             JUNCTION        0.18          1.810        0.000
  
  
  *********************
  Node Flooding Summary
  *********************
  
  Flooding refers to all water that overflows a node, whether it ponds or not.
  --------------------------------------------------------------------------
                                                             Total   Maximum
                                 Maximum   Time of Max       Flood    Ponded
                        Hours       Rate    Occurrence      Volume     Depth
  Node                 Flooded       CMS   days hr:min    10^6 ltr    Meters
  --------------------------------------------------------------------------
  R0019825                0.05     0.072      0  02:20       0.007     0.000
  R0021442                0.04     0.037      0  02:20       0.003     0.000
  R0019252                0.01     0.015      0  02:20       0.000     0.000
  R0021433                0.04     0.026      0  02:20       0.002     0.000
  R0021435                0.06     0.062      0  02:20       0.009     0.000
  
  
  ***********************
  Outfall Loading Summary
  ***********************
  
  -----------------------------------------------------------
                         Flow       Avg       Max       Total
                         Freq      Flow      Flow      Volume
  Outfall Node           Pcnt       CMS       CMS    10^6 ltr
  -----------------------------------------------------------
  R0019769               4.39     0.129     2.087       1.540
  -----------------------------------------------------------
  System                 4.39     0.129     2.087       1.540
  
  
  ********************
  Link Flow Summary
  ********************
  
  -----------------------------------------------------------------------------
                                 Maximum  Time of Max   Maximum    Max/    Max/
                                  |Flow|   Occurrence   |Veloc|    Full    Full
  Link                 Type          CMS  days hr:min     m/sec    Flow   Depth
  -----------------------------------------------------------------------------
  H0014431             CONDUIT     0.080     0  02:19      1.14    1.49    1.00
  H0014433             CONDUIT     0.089     0  02:20      1.25    1.13    1.00
  H0014352             CONDUIT     2.105     0  02:20      3.31    0.86    1.00
  H0014373             CONDUIT     2.065     0  02:21      4.29    0.95    0.71
  H0017981             CONDUIT     0.149     0  02:19      2.11    4.22    1.00
  H0017755             CONDUIT     0.210     0  02:20      1.67    1.70    1.00
  H0017791             CONDUIT     0.165     0  02:21      0.69    0.24    0.52
  H0017357             CONDUIT     0.123     0  02:20      1.74    1.97    1.00
  H0018216             CONDUIT     0.156     0  02:20      2.20    2.83    1.00
  H0016792             CONDUIT     1.265     0  02:20      2.16    0.73    0.87
  H0019507             CONDUIT     0.074     0  02:20      1.05    1.03    1.00
  H0019998             CONDUIT     1.603     0  02:21      3.44    0.64    0.90
  H0019576             CONDUIT     1.327     0  02:21      2.55    0.89    0.76
  H0020087             CONDUIT     0.014     0  02:21      0.20    0.06    0.73
  H0020211             CONDUIT     1.268     0  02:21      2.14    3.16    0.89
  H0018982             CONDUIT     0.264     0  02:21      0.84    0.43    0.58
  H0018753             CONDUIT     0.040     0  02:16      0.65    0.57    1.00
  H0018845             CONDUIT     0.000     0  00:00      0.00    0.00    0.00
  H0018863             CONDUIT     0.102     0  02:20      1.45    2.41    1.00
  H0019156             CONDUIT     0.000     0  00:00      0.00    0.00    0.00
  H0018929             CONDUIT     0.626     0  02:20      1.38    0.54    0.69
  H0018440             CONDUIT     0.162     0  02:18      2.29    2.89    1.00
  H0018456             CONDUIT     0.264     0  02:20      2.10    1.60    1.00
  H0018968             CONDUIT     2.079     0  02:22      5.00    0.80    0.62
  H0022036             CONDUIT     0.065     0  02:19      0.54    0.05    0.35
  H0021806             CONDUIT     0.211     0  02:20      1.68    1.87    1.00
  H0022111             CONDUIT     0.151     0  02:20      0.95    1.08    0.87
  H0021440             CONDUIT     1.181     0  02:20      2.51    0.76    0.70
  H0021704             CONDUIT     0.707     0  02:21      1.61    1.35    0.69
  H0020521             CONDUIT     0.082     0  02:19      1.16    1.66    1.00
  H0020755             CONDUIT     0.105     0  02:20      0.84    1.16    1.00
  H0020530             CONDUIT     2.078     0  02:21      3.27    1.78    1.00
  H0020618             CONDUIT     1.515     0  02:21      3.25    0.94    0.71
  H0021163             CONDUIT     0.123     0  02:18      1.74    2.05    1.00
  H0020497             CONDUIT     0.000     0  00:00      0.00    0.00    1.00
  H0024325             CONDUIT     0.289     0  02:19      1.88    0.86    1.00
  H0023585             CONDUIT     0.555     0  02:20      2.82    1.28    1.00
  H0024098             CONDUIT     0.203     0  02:20      2.87    2.37    1.00
  H0024235             CONDUIT     0.312     0  02:20      1.59    1.28    1.00
  H0024282             CONDUIT     0.000     0  00:00      0.00    0.00    0.00
  H0024308             CONDUIT     2.087     0  02:22      5.63    0.61    0.57
  H0024498             CONDUIT     0.144     0  02:20      2.03    2.22    1.00
  H0026990             CONDUIT     0.084     0  02:20      0.81    0.64    1.00
  H0041650             CONDUIT     0.401     0  02:20      0.98    0.47    0.63
  H0041011             CONDUIT     0.117     0  02:18      1.66    1.16    1.00
  H0045103             CONDUIT     0.285     0  02:22      0.86    0.36    0.61
  H0045104             CONDUIT     2.076     0  02:21      4.67    0.74    0.66
  H0045105             CONDUIT     0.026     0  02:20      0.41    0.45    1.00
  H0045106             CONDUIT     0.421     0  02:19      2.40    0.57    1.00
  H0045107             CONDUIT     0.072     0  02:20      1.01    1.18    1.00
  H0045108             CONDUIT     0.089     0  02:22      1.26    1.61    1.00
  
  
  ***************************
  Flow Classification Summary
  ***************************
  
  -------------------------------------------------------------------------------------
                      Adjusted    ---------- Fraction of Time in Flow Class ---------- 
                       /Actual         Up    Down  Sub   Sup   Up    Down  Norm  Inlet 
  Conduit               Length    Dry  Dry   Dry   Crit  Crit  Crit  Crit  Ltd   Ctrl  
  -------------------------------------------------------------------------------------
  H0014431                1.00   0.03  0.00  0.00  0.97  0.00  0.00  0.00  0.97  0.00
  H0014433                1.00   0.03  0.00  0.00  0.97  0.00  0.00  0.00  0.97  0.00
  H0014352                1.00   0.03  0.00  0.00  0.95  0.02  0.00  0.00  0.97  0.00
  H0014373                1.00   0.03  0.00  0.00  0.93  0.04  0.00  0.00  0.92  0.00
  H0017981                1.00   0.03  0.00  0.00  0.00  0.00  0.00  0.97  0.00  0.00
  H0017755                1.00   0.03  0.00  0.00  0.00  0.00  0.00  0.97  0.00  0.00
  H0017791                1.00   0.03  0.00  0.00  0.97  0.00  0.00  0.00  0.97  0.00
  H0017357                1.00   0.03  0.97  0.00  0.00  0.00  0.00  0.00  0.97  0.00
  H0018216                1.00   0.03  0.93  0.00  0.04  0.00  0.00  0.00  0.97  0.00
  H0016792                1.00   0.03  0.92  0.00  0.05  0.00  0.00  0.00  0.97  0.00
  H0019507                1.00   0.03  0.00  0.00  0.97  0.00  0.00  0.00  0.97  0.00
  H0019998                1.00   0.03  0.00  0.00  0.94  0.04  0.00  0.00  0.05  0.00
  H0019576                1.00   0.03  0.00  0.00  0.96  0.02  0.00  0.00  0.05  0.00
  H0020087                1.00   0.03  0.96  0.00  0.01  0.00  0.00  0.00  0.97  0.00
  H0020211                1.00   0.03  0.00  0.00  0.97  0.00  0.00  0.00  0.92  0.00
  H0018982                1.00   0.03  0.00  0.00  0.97  0.00  0.00  0.00  0.94  0.00
  H0018753                1.00   0.03  0.00  0.00  0.97  0.00  0.00  0.00  0.97  0.00
  H0018845                1.00   1.00  0.00  0.00  0.00  0.00  0.00  0.00  0.00  0.00
  H0018863                1.00   0.03  0.00  0.00  0.97  0.00  0.00  0.00  0.97  0.00
  H0019156                1.00   1.00  0.00  0.00  0.00  0.00  0.00  0.00  0.00  0.00
  H0018929                1.00   0.03  0.93  0.00  0.05  0.00  0.00  0.00  0.97  0.00
  H0018440                1.00   0.03  0.00  0.00  0.97  0.00  0.00  0.00  0.97  0.00
  H0018456                1.00   0.03  0.00  0.00  0.97  0.00  0.00  0.00  0.97  0.00
  H0018968                1.00   0.03  0.92  0.00  0.02  0.04  0.00  0.00  0.94  0.00
  H0022036                1.00   0.03  0.00  0.00  0.01  0.00  0.00  0.96  0.01  0.00
  H0021806                1.00   0.03  0.93  0.00  0.04  0.00  0.00  0.00  0.96  0.00
  H0022111                1.00   0.03  0.00  0.00  0.97  0.00  0.00  0.00  0.00  0.00
  H0021440                1.00   0.03  0.00  0.00  0.95  0.02  0.00  0.00  0.02  0.00
  H0021704                1.00   0.03  0.00  0.00  0.00  0.00  0.00  0.97  0.00  0.00
  H0020521                1.00   0.03  0.00  0.00  0.97  0.00  0.00  0.00  0.97  0.00
  H0020755                1.00   0.03  0.93  0.00  0.04  0.00  0.00  0.00  0.97  0.00
  H0020530                1.00   0.03  0.00  0.00  0.95  0.02  0.00  0.00  0.01  0.00
  H0020618                1.00   0.03  0.00  0.00  0.94  0.03  0.00  0.00  0.93  0.00
  H0021163                1.00   0.03  0.00  0.00  0.97  0.01  0.00  0.00  0.94  0.00
  H0020497                1.20   0.03  0.97  0.00  0.00  0.00  0.00  0.00  0.00  0.00
  H0024325                1.00   0.03  0.00  0.00  0.95  0.02  0.00  0.00  0.94  0.00
  H0023585                1.00   0.03  0.00  0.00  0.00  0.00  0.00  0.97  0.00  0.00
  H0024098                1.00   0.03  0.93  0.00  0.04  0.00  0.00  0.00  0.97  0.00
  H0024235                1.00   0.03  0.00  0.00  0.00  0.00  0.00  0.97  0.00  0.00
  H0024282                1.00   1.00  0.00  0.00  0.00  0.00  0.00  0.00  0.00  0.00
  H0024308                1.00   0.03  0.00  0.00  0.92  0.05  0.00  0.00  0.01  0.00
  H0024498                1.00   0.03  0.00  0.00  0.00  0.00  0.00  0.97  0.00  0.00
  H0026990                1.00   0.03  0.00  0.00  0.97  0.00  0.00  0.00  0.97  0.00
  H0041650                1.00   0.95  0.01  0.00  0.04  0.00  0.00  0.00  0.96  0.00
  H0041011                1.00   0.03  0.00  0.00  0.97  0.00  0.00  0.00  0.97  0.00
  H0045103                1.00   0.03  0.00  0.00  0.97  0.00  0.00  0.00  0.95  0.00
  H0045104                1.00   0.03  0.00  0.00  0.93  0.04  0.00  0.00  0.05  0.00
  H0045105                1.00   0.03  0.00  0.00  0.97  0.00  0.00  0.00  0.97  0.00
  H0045106                1.00   0.03  0.00  0.00  0.95  0.02  0.00  0.00  0.97  0.00
  H0045107                1.00   0.03  0.00  0.00  0.97  0.00  0.00  0.00  0.97  0.00
  H0045108                1.00   0.03  0.00  0.00  0.97  0.00  0.00  0.00  0.97  0.00
  
  
  *************************
  Conduit Surcharge Summary
  *************************
  
  ----------------------------------------------------------------------------
                                                           Hours        Hours 
                         --------- Hours Full --------   Above Full   Capacity
  Conduit                Both Ends  Upstream  Dnstream   Normal Flow   Limited
  ----------------------------------------------------------------------------
  H0014431                    0.17      0.18      0.17      0.19         0.17
  H0014433                    0.11      0.11      0.15      0.03         0.02
  H0014352                    0.01      0.01      0.06      0.01         0.01
  H0017981                    0.07      0.11      0.07      0.21         0.10
  H0017755                    0.07      0.09      0.07      0.13         0.08
  H0017357                    0.01      0.01      0.11      0.07         0.01
  H0018216                    0.11      0.13      0.11      0.15         0.12
  H0016792                    0.01      0.01      0.01      0.01         0.01
  H0019507                    0.11      0.11      0.18      0.01         0.01
  H0019998                    0.01      0.01      0.01      0.01         0.01
  H0020211                    0.01      0.01      0.01      0.18         0.01
  H0018753                    0.11      0.11      0.18      0.01         0.01
  H0018863                    0.18      0.18      0.19      0.11         0.10
  H0018440                    0.15      0.20      0.15      0.23         0.19
  H0018456                    0.05      0.07      0.05      0.09         0.06
  H0021806                    0.09      0.12      0.09      0.14         0.11
  H0022111                    0.01      0.01      0.01      0.01         0.01
  H0021704                    0.01      0.01      0.01      0.08         0.01
  H0020521                    0.11      0.11      0.13      0.09         0.08
  H0020755                    0.06      0.06      0.07      0.02         0.01
  H0020530                    0.01      0.06      0.01      0.11         0.05
  H0021163                    0.14      0.15      0.16      0.15         0.13
  H0024325                    0.01      0.01      0.04      0.01         0.01
  H0023585                    0.03      0.06      0.03      0.07         0.06
  H0024098                    0.19      0.19      0.23      0.16         0.15
  H0024235                    0.01      0.02      0.01      0.05         0.02
  H0024498                    0.04      0.17      0.04      0.21         0.14
  H0026990                    0.03      0.03      0.06      0.01         0.01
  H0041011                    0.16      0.16      0.19      0.07         0.05
  H0045105                    0.03      0.03      0.04      0.01         0.01
  H0045106                    0.04      0.04      0.06      0.01         0.01
  H0045107                    0.15      0.15      0.18      0.05         0.05
  H0045108                    0.18      0.18      0.20      0.13         0.13
  

  Analysis begun on:  Fri Mar 22 15:56:31 2024
  Analysis ended on:  Fri Mar 22 15:56:40 2024
  Total elapsed time: 00:00:09