
  EPA STORM WATER MANAGEMENT MODEL - VERSION 5.2 (Build 5.2.4)
  PYSWMM TOOLKIT API - VERSION v1.0 (2023-11-27)
  ------------------------------------------------------------

  Gievenbeck_e2_T2D180 
  
  ****************
  Analysis Options
  ****************
  Flow Units ............... CMS
  Process Models:
    Rainfall/Runoff ........ YES
    RDII ................... NO
    Snowmelt ............... NO
    Groundwater ............ NO
    Flow Routing ........... YES
    Ponding Allowed ........ NO
    Water Quality .......... NO
  Infiltration Method ...... HORTON
  Flow Routing Method ...... DYNWAVE
  Surcharge Method ......... SLOT
  Starting Date ............ 01/01/2024 00:00:00
  Ending Date .............. 01/04/2024 04:00:00
  Antecedent Dry Days ...... 14.0
  Report Time Step ......... 00:01:00
  Wet Time Step ............ 00:01:00
  Dry Time Step ............ 00:01:00
  Routing Time Step ........ 1.00 sec
  Variable Time Step ....... YES
  Maximum Trials ........... 8
  Number of Threads ........ 1
  Head Tolerance ........... 0.001500 m
  
  
  **************************        Volume         Depth
  Runoff Quantity Continuity     hectare-m            mm
  **************************     ---------       -------
  Total Precipitation ......         0.248        24.510
  Evaporation Loss .........         0.010         0.952
  Infiltration Loss ........         0.138        13.629
  Surface Runoff ...........         0.101         9.953
  Final Storage ............         0.000         0.000
  Continuity Error (%) .....        -0.097
  
  
  **************************        Volume        Volume
  Flow Routing Continuity        hectare-m      10^6 ltr
  **************************     ---------     ---------
  Dry Weather Inflow .......         0.000         0.000
  Wet Weather Inflow .......         0.101         1.007
  Groundwater Inflow .......         0.000         0.000
  RDII Inflow ..............         0.000         0.000
  External Inflow ..........         0.000         0.000
  External Outflow .........         0.101         1.008
  Flooding Loss ............         0.000         0.000
  Evaporation Loss .........         0.000         0.000
  Exfiltration Loss ........         0.000         0.000
  Initial Stored Volume ....         0.000         0.000
  Final Stored Volume ......         0.000         0.000
  Continuity Error (%) .....        -0.076
  
  
  *************************
  Highest Continuity Errors
  *************************
  Node R0019718 (-1.13%)
  
  
  ***************************
  Time-Step Critical Elements
  ***************************
  None
  
  
  ********************************
  Highest Flow Instability Indexes
  ********************************
  All links are stable.
  
  
  *********************************
  Most Frequent Nonconverging Nodes
  *********************************
  Convergence obtained at all time steps.
  
  
  *************************
  Routing Time Step Summary
  *************************
  Minimum Time Step           :     0.50 sec
  Average Time Step           :     1.00 sec
  Maximum Time Step           :     1.00 sec
  % of Time in Steady State   :     0.00
  Average Iterations per Step :     2.00
  % of Steps Not Converging   :     0.00
  Time Step Frequencies       :
      1.000 -  0.871 sec      :   100.00 %
      0.871 -  0.758 sec      :     0.00 %
      0.758 -  0.660 sec      :     0.00 %
      0.660 -  0.574 sec      :     0.00 %
      0.574 -  0.500 sec      :     0.00 %
  
  
  ***************************
  Subcatchment Runoff Summary
  ***************************
  
  ------------------------------------------------------------------------------------------------------------------------------
                            Total      Total      Total      Total     Imperv       Perv      Total       Total     Peak  Runoff
                           Precip      Runon       Evap      Infil     Runoff     Runoff     Runoff      Runoff   Runoff   Coeff
  Subcatchment                 mm         mm         mm         mm         mm         mm         mm    10^6 ltr      CMS
  ------------------------------------------------------------------------------------------------------------------------------
  EZG_368                   24.51       0.00       0.95      13.71      11.33       0.25       9.87        0.04     0.05   0.403
  EZG_392                   24.51       0.00       0.94      13.68      11.33       0.28       9.91        0.03     0.04   0.404
  EZG_352                   24.51       0.00       0.95      13.75      11.32       0.21       9.83        0.06     0.07   0.401
  EZG_372                   24.51       0.00       0.93      13.57      11.35       0.40      10.04        0.01     0.02   0.410
  EZG_416                   24.51       0.00       0.94      13.67      11.33       0.29       9.92        0.03     0.04   0.405
  EZG_388                   24.51       0.00       0.95      13.72      11.32       0.24       9.86        0.04     0.06   0.402
  EZG_394                   24.51       0.00       0.94      13.67      11.33       0.30       9.93        0.03     0.04   0.405
  EZG_400                   24.51       0.00       0.94      13.66      11.34       0.30       9.94        0.03     0.03   0.406
  EZG_390                   24.51       0.00       0.94      13.68      11.33       0.28       9.91        0.03     0.04   0.404
  EZG_350                   24.51       0.00       0.95      13.72      11.32       0.23       9.86        0.05     0.06   0.402
  EZG_370                   24.51       0.00       0.94      13.70      11.33       0.26       9.89        0.04     0.05   0.404
  EZG_398                   24.51       0.00       0.93      13.52      11.35       0.45      10.10        0.01     0.01   0.412
  EZG_382                   24.51       0.00       0.93      13.50      11.35       0.47      10.12        0.01     0.01   0.413
  EZG_374                   24.51       0.00       1.14      11.49      13.59       0.36      11.91        0.05     0.06   0.486
  EZG_412                   24.51       0.00       0.92      13.36      11.37       0.61      10.27        0.00     0.01   0.419
  EZG_344                   24.51       0.00       0.94      13.65      11.34       0.31       9.94        0.03     0.03   0.406
  EZG_376                   24.51       0.00       0.94      13.62      11.34       0.34       9.98        0.02     0.03   0.407
  EZG_356                   24.51       0.00       0.95      13.76      11.32       0.20       9.82        0.06     0.08   0.401
  EZG_386                   24.51       0.00       0.96      13.78      11.31       0.18       9.80        0.08     0.09   0.400
  EZG_380                   24.51       0.00       0.95      13.71      11.33       0.25       9.88        0.04     0.05   0.403
  EZG_378                   24.51       0.00       0.94      13.69      11.33       0.27       9.90        0.03     0.04   0.404
  EZG_414                   24.51       0.00       0.93      13.50      11.35       0.47      10.12        0.01     0.01   0.413
  EZG_402                   24.51       0.00       0.94      13.68      11.33       0.28       9.91        0.03     0.04   0.404
  EZG_358                   24.51       0.00       0.95      13.76      11.32       0.20       9.82        0.06     0.08   0.401
  EZG_364                   24.51       0.00       0.95      13.76      11.32       0.20       9.82        0.06     0.08   0.401
  EZG_410                   24.51       0.00       0.94      13.63      11.34       0.33       9.97        0.02     0.03   0.407
  EZG_366                   24.51       0.00       0.94      13.65      11.34       0.31       9.95        0.02     0.03   0.406
  EZG_18259                 24.51       0.00       0.94      13.65      11.34       0.32       9.95        0.02     0.03   0.406
  EZG_18258                 24.51       0.00       0.93      13.44      11.36       0.53      10.19        0.01     0.01   0.416
  EZG_346                   24.51       0.00       0.93      13.92      11.10       0.25       9.69        0.04     0.05   0.395
  EZG_348                   24.51       0.00       0.92      13.86      11.11       0.32       9.76        0.02     0.03   0.398
  
  
  ******************
  Node Depth Summary
  ******************
  
  ---------------------------------------------------------------------------------
                                 Average  Maximum  Maximum  Time of Max    Reported
                                   Depth    Depth      HGL   Occurrence   Max Depth
  Node                 Type       Meters   Meters   Meters  days hr:min      Meters
  ---------------------------------------------------------------------------------
  R0019466             JUNCTION     0.00     0.53    69.98     0  03:05        0.52
  R0019468             JUNCTION     0.00     0.48    69.79     0  03:05        0.47
  R0019831             JUNCTION     0.00     0.16    69.33     0  03:05        0.15
  R0019825             JUNCTION     0.00     0.48    69.32     0  03:05        0.39
  R0019843             JUNCTION     0.00     0.40    68.03     0  03:05        0.40
  R0019368             JUNCTION     0.01     0.61    67.40     0  03:06        0.60
  R0019369             JUNCTION     0.00     0.44    67.03     0  03:06        0.43
  R0019370             JUNCTION     0.00     0.37    66.27     0  03:07        0.37
  R0019345             JUNCTION     0.00     0.28    70.18     0  03:05        0.28
  R0019346             JUNCTION     0.00     0.26    70.06     0  03:05        0.26
  R0043600             JUNCTION     0.00     0.30    69.97     0  03:05        0.30
  R0019203             JUNCTION     0.00     0.35    69.89     0  03:05        0.35
  R0043594             JUNCTION     0.00     0.24    69.97     0  03:05        0.24
  R0021458             JUNCTION     0.00     0.29    69.94     0  03:05        0.29
  R0019202             JUNCTION     0.00     0.32    69.90     0  03:05        0.32
  R0019373             JUNCTION     0.00     0.33    70.00     0  03:05        0.31
  R0019254             JUNCTION     0.00     0.37    70.41     0  03:05        0.36
  R0019716             JUNCTION     0.00     0.38    69.39     0  03:06        0.38
  R0019946             JUNCTION     0.01     0.53    69.15     0  03:06        0.53
  R0013935             JUNCTION     0.00     0.21    69.04     0  03:05        0.20
  R0019939             JUNCTION     0.00     0.46    69.03     0  03:05        0.43
  R0019944             JUNCTION     0.00     0.33    68.61     0  03:06        0.33
  R0043703             JUNCTION     0.00     0.41    69.01     0  03:06        0.41
  R0019945             JUNCTION     0.00     0.42    68.82     0  03:06        0.41
  R0039621             JUNCTION     0.00     0.14    69.71     0  03:05        0.14
  R0019838             JUNCTION     0.00     0.25    69.71     0  03:05        0.25
  R0039606             JUNCTION     0.00     0.31    69.90     0  03:05        0.31
  R0019204             JUNCTION     0.00     0.00    69.91     0  00:00        0.00
  R0019205             JUNCTION     0.00     0.00    69.62     0  00:00        0.00
  R0019849             JUNCTION     0.00     0.46    68.98     0  03:05        0.45
  R0019371             JUNCTION     0.00     0.00    70.41     0  00:00        0.00
  R0019718             JUNCTION     0.01     0.43    69.85     0  03:06        0.43
  R0021442             JUNCTION     0.00     0.95    71.00     0  03:05        0.92
  R0019247             JUNCTION     0.00     0.40    70.28     0  03:05        0.38
  R0019719             JUNCTION     0.00     0.27    69.95     0  03:05        0.27
  R0019767             JUNCTION     0.00     0.39    65.12     0  03:06        0.39
  R0019768             JUNCTION     0.00     0.34    64.11     0  03:06        0.33
  R0021453             JUNCTION     0.00     0.10    70.05     0  03:05        0.10
  R0019839             JUNCTION     0.00     0.23    69.62     0  03:05        0.23
  R0019717             JUNCTION     0.00     0.37    69.71     0  03:05        0.37
  R0019252             JUNCTION     0.00     0.33    70.52     0  03:05        0.26
  R0019721             JUNCTION     0.00     0.22    70.09     0  03:05        0.22
  R0019942             JUNCTION     0.00     0.39    69.04     0  03:05        0.37
  R0019206             JUNCTION     0.00     0.00    69.07     0  00:00        0.00
  R0019840             JUNCTION     0.00     0.21    69.18     0  03:05        0.20
  R0043702             JUNCTION     0.00     0.31    69.01     0  03:05        0.30
  R0019723             JUNCTION     0.00     0.15    70.23     0  03:05        0.15
  R0019724             JUNCTION     0.00     0.08    70.24     0  03:05        0.08
  R0021433             JUNCTION     0.00     0.88    71.27     0  03:05        0.84
  R0021435             JUNCTION     0.00     1.00    71.18     0  03:05        0.96
  R0019769             OUTFALL      0.00     0.34    63.72     0  03:06        0.33
  
  
  *******************
  Node Inflow Summary
  *******************
  
  -------------------------------------------------------------------------------------------------
                                  Maximum  Maximum                  Lateral       Total        Flow
                                  Lateral    Total  Time of Max      Inflow      Inflow     Balance
                                   Inflow   Inflow   Occurrence      Volume      Volume       Error
  Node                 Type           CMS      CMS  days hr:min    10^6 ltr    10^6 ltr     Percent
  -------------------------------------------------------------------------------------------------
  R0019466             JUNCTION     0.052    0.078     0  03:03      0.0408      0.0738       0.139
  R0019468             JUNCTION     0.031    0.095     0  03:05      0.0238      0.0975      -0.034
  R0019831             JUNCTION     0.041    0.041     0  03:05      0.0321      0.0321       0.064
  R0019825             JUNCTION     0.042    0.082     0  03:05      0.0322      0.0642       0.212
  R0019843             JUNCTION     0.000    1.003     0  03:06           0        1.01      -0.005
  R0019368             JUNCTION     0.000    1.006     0  03:06           0        1.01       0.008
  R0019369             JUNCTION     0.000    1.050     0  03:06           0        1.01      -0.006
  R0019370             JUNCTION     0.000    1.008     0  03:06           0        1.01       0.002
  R0019345             JUNCTION     0.000    0.070     0  03:05           0      0.0628      -0.010
  R0019346             JUNCTION     0.006    0.120     0  03:05      0.0041       0.106       0.019
  R0043600             JUNCTION     0.000    0.138     0  03:05           0       0.122      -0.010
  R0019203             JUNCTION     0.013    0.309     0  03:05     0.00894       0.276      -0.002
  R0043594             JUNCTION     0.071    0.104     0  03:05      0.0581      0.0832      -0.045
  R0021458             JUNCTION     0.057    0.150     0  03:05      0.0453       0.129      -0.016
  R0019202             JUNCTION     0.019    0.167     0  03:05      0.0136       0.144      -0.124
  R0019373             JUNCTION     0.045    0.045     0  03:05      0.0355      0.0355       0.360
  R0019254             JUNCTION     0.038    0.072     0  03:04      0.0289      0.0629       0.058
  R0019716             JUNCTION     0.057    0.583     0  03:06      0.0449       0.565      -0.017
  R0019946             JUNCTION     0.000    0.583     0  03:06           0       0.565       0.004
  R0013935             JUNCTION     0.036    0.036     0  03:05      0.0275      0.0275       0.023
  R0019939             JUNCTION     0.014    0.047     0  03:04        0.01      0.0375      -0.031
  R0019944             JUNCTION     0.034    0.727     0  03:06      0.0256       0.723       0.009
  R0043703             JUNCTION     0.041    0.613     0  03:06      0.0314       0.596       0.015
  R0019945             JUNCTION     0.000    0.712     0  03:06           0       0.698      -0.012
  R0039621             JUNCTION     0.000    0.004     0  03:01           0    0.000814       1.099
  R0019838             JUNCTION     0.077    0.077     0  03:05      0.0629      0.0637      -0.015
  R0039606             JUNCTION     0.000    0.139     0  03:05           0       0.129       0.068
  R0019204             JUNCTION     0.000    0.000     0  00:00           0           0       0.000 ltr
  R0019205             JUNCTION     0.000    0.000     0  00:00           0           0       0.000 ltr
  R0019849             JUNCTION     0.000    0.108     0  03:05           0       0.102       0.024
  R0019371             JUNCTION     0.000    0.000     0  00:00           0           0       0.000 ltr
  R0019718             JUNCTION     0.049    0.340     0  03:05      0.0385       0.314      -1.119
  R0021442             JUNCTION     0.056    0.119     0  03:05      0.0452       0.102       0.061
  R0019247             JUNCTION     0.027    0.141     0  03:05      0.0199       0.122      -0.018
  R0019719             JUNCTION     0.028    0.142     0  03:05      0.0209       0.127      -0.013
  R0019767             JUNCTION     0.000    1.006     0  03:07           0        1.01      -0.008
  R0019768             JUNCTION     0.000    1.005     0  03:06           0        1.01       0.013
  R0021453             JUNCTION     0.033    0.033     0  03:05      0.0251      0.0251      -0.064
  R0019839             JUNCTION     0.076    0.146     0  03:05      0.0622       0.125      -0.005
  R0019717             JUNCTION     0.093    0.545     0  03:05      0.0782       0.522       0.530
  R0019252             JUNCTION     0.044    0.044     0  03:05      0.0339      0.0339      -0.085
  R0019721             JUNCTION     0.012    0.051     0  03:05      0.0088      0.0387       0.033
  R0019942             JUNCTION     0.000    0.073     0  03:05           0      0.0641      -0.227
  R0019206             JUNCTION     0.000    0.000     0  00:00           0           0       0.000 ltr
  R0019840             JUNCTION     0.000    0.237     0  03:05           0       0.223       0.006
  R0043702             JUNCTION     0.076    0.306     0  03:05      0.0622       0.285      -0.005
  R0019723             JUNCTION     0.031    0.040     0  03:05      0.0236      0.0299      -0.079
  R0019724             JUNCTION     0.009    0.009     0  03:05     0.00624     0.00624      -0.077
  R0021433             JUNCTION     0.045    0.045     0  03:05      0.0353      0.0353      -0.289
  R0021435             JUNCTION     0.029    0.069     0  03:05      0.0217      0.0571       0.058
  R0019769             OUTFALL      0.000    1.008     0  03:06           0        1.01       0.000
  
  
  **********************
  Node Surcharge Summary
  **********************
  
  Surcharging occurs when water rises above the top of the highest conduit.
  ---------------------------------------------------------------------
                                               Max. Height   Min. Depth
                                   Hours       Above Crown    Below Rim
  Node                 Type      Surcharged         Meters       Meters
  ---------------------------------------------------------------------
  R0019466             JUNCTION        0.08          0.232        2.278
  R0019468             JUNCTION        0.07          0.178        2.252
  R0019825             JUNCTION        0.03          0.183        1.017
  R0019373             JUNCTION        0.01          0.031        2.469
  R0019254             JUNCTION        0.03          0.067        1.763
  R0019939             JUNCTION        0.07          0.155        1.465
  R0019849             JUNCTION        0.08          0.161        1.769
  R0021442             JUNCTION        0.10          0.653        1.097
  R0019247             JUNCTION        0.01          0.002        1.858
  R0019252             JUNCTION        0.01          0.028        1.612
  R0019942             JUNCTION        0.04          0.093        1.557
  R0021433             JUNCTION        0.05          0.578        1.272
  R0021435             JUNCTION        0.08          0.702        1.108
  
  
  *********************
  Node Flooding Summary
  *********************
  
  No nodes were flooded.
  
  
  ***********************
  Outfall Loading Summary
  ***********************
  
  -----------------------------------------------------------
                         Flow       Avg       Max       Total
                         Freq      Flow      Flow      Volume
  Outfall Node           Pcnt       CMS       CMS    10^6 ltr
  -----------------------------------------------------------
  R0019769               6.78     0.054     1.008       1.008
  -----------------------------------------------------------
  System                 6.78     0.054     1.008       1.008
  
  
  ********************
  Link Flow Summary
  ********************
  
  -----------------------------------------------------------------------------
                                 Maximum  Time of Max   Maximum    Max/    Max/
                                  |Flow|   Occurrence   |Veloc|    Full    Full
  Link                 Type          CMS  days hr:min     m/sec    Flow   Depth
  -----------------------------------------------------------------------------
  H0014431             CONDUIT     0.068     0  03:03      0.96    1.25    1.00
  H0014433             CONDUIT     0.041     0  03:05      0.70    0.52    1.00
  H0014352             CONDUIT     1.006     0  03:06      2.75    0.41    0.56
  H0014373             CONDUIT     1.008     0  03:06      3.67    0.47    0.45
  H0017981             CONDUIT     0.069     0  03:05      1.13    1.97    0.81
  H0017755             CONDUIT     0.136     0  03:05      1.42    1.10    0.72
  H0017791             CONDUIT     0.095     0  03:05      0.61    0.14    0.30
  H0017357             CONDUIT     0.025     0  03:05      0.44    0.40    0.75
  H0018216             CONDUIT     0.070     0  03:05      0.99    1.27    1.00
  H0016792             CONDUIT     0.583     0  03:06      1.82    0.33    0.50
  H0019507             CONDUIT     0.033     0  03:04      0.68    0.46    1.00
  H0019998             CONDUIT     0.727     0  03:06      3.00    0.29    0.41
  H0019576             CONDUIT     0.616     0  03:06      2.17    0.41    0.46
  H0020087             CONDUIT     0.006     0  03:06      0.13    0.03    0.39
  H0020211             CONDUIT     0.592     0  03:06      1.79    1.48    0.52
  H0018982             CONDUIT     0.139     0  03:05      0.79    0.22    0.34
  H0018753             CONDUIT     0.037     0  03:07      0.61    0.52    1.00
  H0018845             CONDUIT     0.000     0  00:00      0.00    0.00    0.00
  H0018863             CONDUIT     0.043     0  03:04      0.62    1.02    1.00
  H0019156             CONDUIT     0.000     0  00:00      0.00    0.00    0.00
  H0018929             CONDUIT     0.311     0  03:06      1.19    0.27    0.43
  H0018440             CONDUIT     0.117     0  03:05      1.66    2.10    1.00
  H0018456             CONDUIT     0.120     0  03:05      1.37    0.73    0.66
  H0018968             CONDUIT     1.005     0  03:06      4.18    0.39    0.40
  H0022036             CONDUIT     0.032     0  03:05      0.47    0.03    0.17
  H0021806             CONDUIT     0.138     0  03:05      1.18    1.22    0.88
  H0022111             CONDUIT     0.071     0  03:05      0.77    0.51    0.48
  H0021440             CONDUIT     0.548     0  03:06      2.19    0.35    0.42
  H0021704             CONDUIT     0.345     0  03:06      1.34    0.66    0.43
  H0020521             CONDUIT     0.040     0  03:05      0.62    0.80    1.00
  H0020755             CONDUIT     0.047     0  03:05      0.59    0.51    0.60
  H0020530             CONDUIT     1.050     0  03:06      2.75    0.90    0.58
  H0020618             CONDUIT     0.711     0  03:06      2.83    0.44    0.42
  H0021163             CONDUIT     0.073     0  03:05      1.15    1.22    1.00
  H0020497             CONDUIT     0.000     0  00:00      0.00    0.00    0.67
  H0024325             CONDUIT     0.143     0  03:05      1.75    0.43    0.43
  H0023585             CONDUIT     0.305     0  03:05      2.41    0.70    0.62
  H0024098             CONDUIT     0.108     0  03:05      1.53    1.26    1.00
  H0024235             CONDUIT     0.141     0  03:05      1.35    0.58    0.53
  H0024282             CONDUIT     0.000     0  00:00      0.00    0.00    0.00
  H0024308             CONDUIT     1.008     0  03:06      4.67    0.30    0.37
  H0024498             CONDUIT     0.095     0  03:05      1.34    1.47    1.00
  H0026990             CONDUIT     0.039     0  03:05      0.70    0.29    0.46
  H0041650             CONDUIT     0.166     0  03:05      0.77    0.19    0.37
  H0041011             CONDUIT     0.073     0  03:05      1.04    0.73    1.00
  H0045103             CONDUIT     0.137     0  03:05      0.73    0.17    0.35
  H0045104             CONDUIT     1.006     0  03:07      3.91    0.36    0.42
  H0045105             CONDUIT     0.009     0  03:05      0.36    0.15    0.38
  H0045106             CONDUIT     0.238     0  03:05      2.34    0.32    0.51
  H0045107             CONDUIT     0.040     0  03:05      0.71    0.67    1.00
  H0045108             CONDUIT     0.066     0  03:05      0.94    1.20    1.00
  
  
  ***************************
  Flow Classification Summary
  ***************************
  
  -------------------------------------------------------------------------------------
                      Adjusted    ---------- Fraction of Time in Flow Class ---------- 
                       /Actual         Up    Down  Sub   Sup   Up    Down  Norm  Inlet 
  Conduit               Length    Dry  Dry   Dry   Crit  Crit  Crit  Crit  Ltd   Ctrl  
  -------------------------------------------------------------------------------------
  H0014431                1.00   0.03  0.90  0.00  0.07  0.00  0.00  0.00  0.96  0.00
  H0014433                1.00   0.03  0.00  0.00  0.97  0.00  0.00  0.00  0.97  0.00
  H0014352                1.00   0.03  0.00  0.00  0.92  0.05  0.00  0.00  0.97  0.00
  H0014373                1.00   0.03  0.00  0.00  0.91  0.06  0.00  0.00  0.89  0.00
  H0017981                1.00   0.03  0.00  0.00  0.00  0.00  0.00  0.97  0.00  0.00
  H0017755                1.00   0.03  0.00  0.00  0.00  0.00  0.00  0.97  0.00  0.00
  H0017791                1.00   0.03  0.00  0.00  0.97  0.00  0.00  0.00  0.97  0.00
  H0017357                1.00   0.03  0.97  0.00  0.00  0.00  0.00  0.00  0.96  0.00
  H0018216                1.00   0.03  0.90  0.00  0.07  0.00  0.00  0.00  0.97  0.00
  H0016792                1.00   0.03  0.89  0.00  0.07  0.00  0.00  0.00  0.97  0.00
  H0019507                1.00   0.03  0.00  0.00  0.97  0.00  0.00  0.00  0.97  0.00
  H0019998                1.00   0.03  0.00  0.00  0.91  0.06  0.00  0.00  0.08  0.00
  H0019576                1.00   0.03  0.00  0.00  0.93  0.04  0.00  0.00  0.07  0.00
  H0020087                1.00   0.03  0.96  0.00  0.01  0.00  0.00  0.00  0.96  0.00
  H0020211                1.00   0.03  0.00  0.00  0.97  0.00  0.00  0.00  0.89  0.00
  H0018982                1.00   0.03  0.00  0.00  0.97  0.00  0.00  0.00  0.91  0.00
  H0018753                1.00   0.03  0.00  0.00  0.97  0.00  0.00  0.00  0.97  0.00
  H0018845                1.00   1.00  0.00  0.00  0.00  0.00  0.00  0.00  0.00  0.00
  H0018863                1.00   0.03  0.00  0.00  0.97  0.00  0.00  0.00  0.96  0.00
  H0019156                1.00   1.00  0.00  0.00  0.00  0.00  0.00  0.00  0.00  0.00
  H0018929                1.00   0.03  0.90  0.00  0.07  0.00  0.00  0.00  0.97  0.00
  H0018440                1.00   0.03  0.00  0.00  0.97  0.00  0.00  0.00  0.96  0.00
  H0018456                1.00   0.03  0.00  0.00  0.97  0.00  0.00  0.00  0.96  0.00
  H0018968                1.00   0.03  0.89  0.00  0.02  0.07  0.00  0.00  0.91  0.00
  H0022036                1.00   0.03  0.00  0.00  0.02  0.02  0.00  0.93  0.01  0.00
  H0021806                1.00   0.03  0.90  0.00  0.07  0.00  0.00  0.00  0.93  0.00
  H0022111                1.00   0.03  0.00  0.00  0.97  0.00  0.00  0.00  0.00  0.00
  H0021440                1.00   0.03  0.00  0.00  0.92  0.05  0.00  0.00  0.02  0.00
  H0021704                1.00   0.03  0.00  0.00  0.00  0.00  0.00  0.97  0.00  0.00
  H0020521                1.00   0.03  0.00  0.00  0.97  0.00  0.00  0.00  0.97  0.00
  H0020755                1.00   0.03  0.91  0.00  0.06  0.00  0.00  0.00  0.96  0.00
  H0020530                1.00   0.03  0.00  0.00  0.93  0.04  0.00  0.00  0.01  0.00
  H0020618                1.00   0.03  0.00  0.00  0.92  0.05  0.00  0.00  0.90  0.00
  H0021163                1.00   0.03  0.00  0.00  0.96  0.01  0.00  0.00  0.91  0.00
  H0020497                1.20   0.03  0.97  0.00  0.00  0.00  0.00  0.00  0.00  0.00
  H0024325                1.00   0.03  0.00  0.00  0.92  0.05  0.00  0.00  0.91  0.00
  H0023585                1.00   0.03  0.00  0.00  0.00  0.00  0.00  0.97  0.00  0.00
  H0024098                1.00   0.03  0.90  0.00  0.07  0.00  0.00  0.00  0.96  0.00
  H0024235                1.00   0.03  0.00  0.00  0.00  0.00  0.00  0.97  0.00  0.00
  H0024282                1.00   1.00  0.00  0.00  0.00  0.00  0.00  0.00  0.00  0.00
  H0024308                1.00   0.03  0.00  0.00  0.89  0.08  0.00  0.00  0.03  0.00
  H0024498                1.00   0.03  0.00  0.00  0.00  0.00  0.00  0.97  0.00  0.00
  H0026990                1.00   0.03  0.00  0.00  0.97  0.00  0.00  0.00  0.97  0.00
  H0041650                1.00   0.93  0.01  0.00  0.06  0.00  0.00  0.00  0.96  0.00
  H0041011                1.00   0.03  0.00  0.00  0.97  0.00  0.00  0.00  0.96  0.00
  H0045103                1.00   0.03  0.00  0.00  0.97  0.00  0.00  0.00  0.92  0.00
  H0045104                1.00   0.03  0.00  0.00  0.90  0.07  0.00  0.00  0.07  0.00
  H0045105                1.00   0.03  0.00  0.00  0.97  0.00  0.00  0.00  0.97  0.00
  H0045106                1.00   0.03  0.90  0.00  0.02  0.05  0.00  0.00  0.97  0.00
  H0045107                1.00   0.03  0.00  0.00  0.97  0.00  0.00  0.00  0.97  0.00
  H0045108                1.00   0.03  0.00  0.00  0.97  0.00  0.00  0.00  0.97  0.00
  
  
  *************************
  Conduit Surcharge Summary
  *************************
  
  ----------------------------------------------------------------------------
                                                           Hours        Hours 
                         --------- Hours Full --------   Above Full   Capacity
  Conduit                Both Ends  Upstream  Dnstream   Normal Flow   Limited
  ----------------------------------------------------------------------------
  H0014431                    0.07      0.08      0.07      0.09         0.07
  H0014433                    0.01      0.01      0.03      0.01         0.01
  H0017981                    0.01      0.01      0.01      0.11         0.01
  H0017755                    0.01      0.01      0.01      0.03         0.01
  H0017357                    0.01      0.01      0.01      0.01         0.01
  H0018216                    0.01      0.03      0.01      0.07         0.02
  H0019507                    0.01      0.01      0.07      0.01         0.01
  H0020211                    0.01      0.01      0.01      0.08         0.01
  H0018753                    0.01      0.01      0.08      0.01         0.01
  H0018863                    0.07      0.07      0.08      0.01         0.01
  H0018440                    0.05      0.10      0.05      0.12         0.08
  H0021806                    0.01      0.01      0.01      0.04         0.01
  H0020521                    0.01      0.01      0.03      0.01         0.01
  H0021163                    0.03      0.03      0.04      0.05         0.02
  H0024098                    0.08      0.08      0.11      0.05         0.04
  H0024498                    0.01      0.07      0.01      0.10         0.04
  H0041011                    0.04      0.04      0.08      0.01         0.01
  H0045107                    0.05      0.05      0.08      0.01         0.01
  H0045108                    0.08      0.08      0.10      0.04         0.03
  

  Analysis begun on:  Fri Mar 22 15:55:54 2024
  Analysis ended on:  Fri Mar 22 15:56:04 2024
  Total elapsed time: 00:00:10