
  EPA STORM WATER MANAGEMENT MODEL - VERSION 5.2 (Build 5.2.4)
  PYSWMM TOOLKIT API - VERSION v1.0 (2023-11-27)
  ------------------------------------------------------------

  Gievenbeck_2018-08-13 14 45 00_hN5 17 
  
  ****************
  Analysis Options
  ****************
  Flow Units ............... CMS
  Process Models:
    Rainfall/Runoff ........ YES
    RDII ................... NO
    Snowmelt ............... NO
    Groundwater ............ NO
    Flow Routing ........... YES
    Ponding Allowed ........ NO
    Water Quality .......... NO
  Infiltration Method ...... HORTON
  Flow Routing Method ...... DYNWAVE
  Surcharge Method ......... SLOT
  Starting Date ............ 01/01/2024 00:00:00
  Ending Date .............. 01/04/2024 04:00:00
  Antecedent Dry Days ...... 14.0
  Report Time Step ......... 00:01:00
  Wet Time Step ............ 00:01:00
  Dry Time Step ............ 00:01:00
  Routing Time Step ........ 1.00 sec
  Variable Time Step ....... YES
  Maximum Trials ........... 8
  Number of Threads ........ 1
  Head Tolerance ........... 0.001500 m
  
  
  **************************        Volume         Depth
  Runoff Quantity Continuity     hectare-m            mm
  **************************     ---------       -------
  Total Precipitation ......         0.052         5.170
  Evaporation Loss .........         0.010         0.953
  Infiltration Loss ........         0.029         2.818
  Surface Runoff ...........         0.014         1.413
  Final Storage ............         0.000         0.000
  Continuity Error (%) .....        -0.255
  
  
  **************************        Volume        Volume
  Flow Routing Continuity        hectare-m      10^6 ltr
  **************************     ---------     ---------
  Dry Weather Inflow .......         0.000         0.000
  Wet Weather Inflow .......         0.014         0.143
  Groundwater Inflow .......         0.000         0.000
  RDII Inflow ..............         0.000         0.000
  External Inflow ..........         0.000         0.000
  External Outflow .........         0.014         0.143
  Flooding Loss ............         0.000         0.000
  Evaporation Loss .........         0.000         0.000
  Exfiltration Loss ........         0.000         0.000
  Initial Stored Volume ....         0.000         0.000
  Final Stored Volume ......         0.000         0.000
  Continuity Error (%) .....        -0.304
  
  
  *************************
  Highest Continuity Errors
  *************************
  Node R0019718 (-1.32%)
  Node R0043594 (-1.26%)
  
  
  ***************************
  Time-Step Critical Elements
  ***************************
  None
  
  
  ********************************
  Highest Flow Instability Indexes
  ********************************
  All links are stable.
  
  
  *********************************
  Most Frequent Nonconverging Nodes
  *********************************
  Convergence obtained at all time steps.
  
  
  *************************
  Routing Time Step Summary
  *************************
  Minimum Time Step           :     0.50 sec
  Average Time Step           :     1.00 sec
  Maximum Time Step           :     1.00 sec
  % of Time in Steady State   :     0.00
  Average Iterations per Step :     2.00
  % of Steps Not Converging   :     0.00
  Time Step Frequencies       :
      1.000 -  0.871 sec      :   100.00 %
      0.871 -  0.758 sec      :     0.00 %
      0.758 -  0.660 sec      :     0.00 %
      0.660 -  0.574 sec      :     0.00 %
      0.574 -  0.500 sec      :     0.00 %
  
  
  ***************************
  Subcatchment Runoff Summary
  ***************************
  
  ------------------------------------------------------------------------------------------------------------------------------
                            Total      Total      Total      Total     Imperv       Perv      Total       Total     Peak  Runoff
                           Precip      Runon       Evap      Infil     Runoff     Runoff     Runoff      Runoff   Runoff   Coeff
  Subcatchment                 mm         mm         mm         mm         mm         mm         mm    10^6 ltr      CMS
  ------------------------------------------------------------------------------------------------------------------------------
  EZG_368                    5.17       0.00       0.95       2.83       1.65       0.00       1.40        0.01     0.01   0.271
  EZG_392                    5.17       0.00       0.94       2.83       1.66       0.00       1.41        0.00     0.01   0.272
  EZG_352                    5.17       0.00       0.95       2.83       1.64       0.00       1.40        0.01     0.02   0.270
  EZG_372                    5.17       0.00       0.93       2.84       1.67       0.00       1.42        0.00     0.01   0.275
  EZG_416                    5.17       0.00       0.94       2.83       1.66       0.00       1.41        0.00     0.01   0.272
  EZG_388                    5.17       0.00       0.95       2.83       1.65       0.00       1.40        0.01     0.02   0.271
  EZG_394                    5.17       0.00       0.94       2.83       1.66       0.00       1.41        0.00     0.01   0.273
  EZG_400                    5.17       0.00       0.94       2.83       1.66       0.00       1.41        0.00     0.01   0.273
  EZG_390                    5.17       0.00       0.94       2.83       1.66       0.00       1.41        0.00     0.01   0.272
  EZG_350                    5.17       0.00       0.95       2.83       1.65       0.00       1.40        0.01     0.02   0.271
  EZG_370                    5.17       0.00       0.94       2.83       1.65       0.00       1.41        0.01     0.01   0.272
  EZG_398                    5.17       0.00       0.93       2.84       1.68       0.00       1.43        0.00     0.00   0.276
  EZG_382                    5.17       0.00       0.93       2.84       1.68       0.00       1.43        0.00     0.00   0.276
  EZG_374                    5.17       0.00       1.14       2.36       1.97       0.00       1.68        0.01     0.01   0.325
  EZG_412                    5.17       0.00       0.92       2.84       1.69       0.00       1.44        0.00     0.00   0.278
  EZG_344                    5.17       0.00       0.94       2.83       1.66       0.00       1.41        0.00     0.01   0.273
  EZG_376                    5.17       0.00       0.94       2.83       1.66       0.00       1.41        0.00     0.01   0.274
  EZG_356                    5.17       0.00       0.95       2.83       1.64       0.00       1.40        0.01     0.02   0.270
  EZG_386                    5.17       0.00       0.96       2.83       1.64       0.00       1.39        0.01     0.02   0.269
  EZG_380                    5.17       0.00       0.95       2.83       1.65       0.00       1.40        0.01     0.01   0.272
  EZG_378                    5.17       0.00       0.94       2.83       1.65       0.00       1.41        0.00     0.01   0.272
  EZG_414                    5.17       0.00       0.93       2.84       1.68       0.00       1.43        0.00     0.00   0.276
  EZG_402                    5.17       0.00       0.94       2.83       1.66       0.00       1.41        0.00     0.01   0.272
  EZG_358                    5.17       0.00       0.95       2.83       1.64       0.00       1.40        0.01     0.02   0.270
  EZG_364                    5.17       0.00       0.95       2.83       1.64       0.00       1.40        0.01     0.02   0.270
  EZG_410                    5.17       0.00       0.94       2.83       1.66       0.00       1.41        0.00     0.01   0.273
  EZG_366                    5.17       0.00       0.94       2.83       1.66       0.00       1.41        0.00     0.01   0.273
  EZG_18259                  5.17       0.00       0.94       2.83       1.66       0.00       1.41        0.00     0.01   0.273
  EZG_18258                  5.17       0.00       0.93       2.84       1.68       0.00       1.43        0.00     0.00   0.277
  EZG_346                    5.17       0.00       0.93       2.88       1.62       0.00       1.38        0.01     0.01   0.266
  EZG_348                    5.17       0.00       0.92       2.88       1.63       0.00       1.39        0.00     0.01   0.268
  
  
  ******************
  Node Depth Summary
  ******************
  
  ---------------------------------------------------------------------------------
                                 Average  Maximum  Maximum  Time of Max    Reported
                                   Depth    Depth      HGL   Occurrence   Max Depth
  Node                 Type       Meters   Meters   Meters  days hr:min      Meters
  ---------------------------------------------------------------------------------
  R0019466             JUNCTION     0.00     0.14    69.59     0  02:10        0.13
  R0019468             JUNCTION     0.00     0.13    69.44     0  02:11        0.13
  R0019831             JUNCTION     0.00     0.08    69.25     0  02:10        0.07
  R0019825             JUNCTION     0.00     0.12    68.96     0  02:10        0.12
  R0019843             JUNCTION     0.00     0.16    67.79     0  02:15        0.16
  R0019368             JUNCTION     0.00     0.23    67.02     0  02:15        0.22
  R0019369             JUNCTION     0.00     0.17    66.76     0  02:15        0.17
  R0019370             JUNCTION     0.00     0.15    66.05     0  02:15        0.15
  R0019345             JUNCTION     0.00     0.13    70.03     0  02:11        0.13
  R0019346             JUNCTION     0.00     0.11    69.91     0  02:12        0.11
  R0043600             JUNCTION     0.00     0.13    69.80     0  02:13        0.13
  R0019203             JUNCTION     0.00     0.14    69.68     0  02:13        0.14
  R0043594             JUNCTION     0.00     0.11    69.84     0  02:11        0.11
  R0021458             JUNCTION     0.00     0.14    69.79     0  02:11        0.14
  R0019202             JUNCTION     0.00     0.12    69.70     0  02:13        0.12
  R0019373             JUNCTION     0.00     0.08    69.75     0  02:10        0.08
  R0019254             JUNCTION     0.00     0.12    70.16     0  02:10        0.12
  R0019716             JUNCTION     0.00     0.15    69.16     0  02:14        0.15
  R0019946             JUNCTION     0.00     0.24    68.86     0  02:14        0.24
  R0013935             JUNCTION     0.00     0.07    68.90     0  02:10        0.07
  R0019939             JUNCTION     0.00     0.11    68.68     0  02:10        0.11
  R0019944             JUNCTION     0.00     0.13    68.41     0  02:15        0.13
  R0043703             JUNCTION     0.00     0.16    68.76     0  02:15        0.16
  R0019945             JUNCTION     0.00     0.16    68.56     0  02:15        0.16
  R0039621             JUNCTION     0.00     0.00    69.57     0  02:11        0.00
  R0019838             JUNCTION     0.00     0.11    69.57     0  02:10        0.11
  R0039606             JUNCTION     0.00     0.12    69.71     0  02:12        0.12
  R0019204             JUNCTION     0.00     0.00    69.91     0  00:00        0.00
  R0019205             JUNCTION     0.00     0.00    69.62     0  00:00        0.00
  R0019849             JUNCTION     0.00     0.12    68.64     0  02:11        0.12
  R0019371             JUNCTION     0.00     0.00    70.41     0  00:00        0.00
  R0019718             JUNCTION     0.00     0.19    69.61     0  02:14        0.19
  R0021442             JUNCTION     0.00     0.15    70.20     0  02:11        0.15
  R0019247             JUNCTION     0.00     0.14    70.02     0  02:12        0.14
  R0019719             JUNCTION     0.00     0.12    69.80     0  02:12        0.12
  R0019767             JUNCTION     0.00     0.15    64.88     0  02:16        0.15
  R0019768             JUNCTION     0.00     0.13    63.90     0  02:16        0.13
  R0021453             JUNCTION     0.00     0.05    70.00     0  02:10        0.05
  R0019839             JUNCTION     0.00     0.10    69.49     0  02:11        0.10
  R0019717             JUNCTION     0.00     0.15    69.49     0  02:14        0.15
  R0019252             JUNCTION     0.00     0.09    70.28     0  02:10        0.09
  R0019721             JUNCTION     0.00     0.10    69.97     0  02:11        0.10
  R0019942             JUNCTION     0.00     0.09    68.74     0  02:11        0.09
  R0019206             JUNCTION     0.00     0.00    69.07     0  00:00        0.00
  R0019840             JUNCTION     0.00     0.09    69.06     0  02:11        0.09
  R0043702             JUNCTION     0.00     0.13    68.83     0  02:11        0.13
  R0019723             JUNCTION     0.00     0.08    70.16     0  02:10        0.08
  R0019724             JUNCTION     0.00     0.05    70.21     0  02:10        0.05
  R0021433             JUNCTION     0.00     0.09    70.48     0  02:10        0.09
  R0021435             JUNCTION     0.00     0.11    70.29     0  02:11        0.11
  R0019769             OUTFALL      0.00     0.13    63.51     0  02:16        0.13
  
  
  *******************
  Node Inflow Summary
  *******************
  
  -------------------------------------------------------------------------------------------------
                                  Maximum  Maximum                  Lateral       Total        Flow
                                  Lateral    Total  Time of Max      Inflow      Inflow     Balance
                                   Inflow   Inflow   Occurrence      Volume      Volume       Error
  Node                 Type           CMS      CMS  days hr:min    10^6 ltr    10^6 ltr     Percent
  -------------------------------------------------------------------------------------------------
  R0019466             JUNCTION     0.014    0.024     0  02:10      0.0058      0.0108      -0.133
  R0019468             JUNCTION     0.010    0.029     0  02:10     0.00338      0.0142       0.127
  R0019831             JUNCTION     0.012    0.012     0  02:10     0.00456     0.00456      -0.464
  R0019825             JUNCTION     0.012    0.022     0  02:10     0.00457     0.00915      -0.069
  R0019843             JUNCTION     0.000    0.161     0  02:14           0       0.143      -0.063
  R0019368             JUNCTION     0.000    0.161     0  02:15           0       0.143      -0.003
  R0019369             JUNCTION     0.000    0.161     0  02:15           0       0.144       0.013
  R0019370             JUNCTION     0.000    0.160     0  02:15           0       0.143       0.008
  R0019345             JUNCTION     0.000    0.018     0  02:11           0     0.00897       0.515
  R0019346             JUNCTION     0.002    0.029     0  02:11    0.000574       0.015       0.174
  R0043600             JUNCTION     0.000    0.030     0  02:12           0      0.0174       0.551
  R0019203             JUNCTION     0.004    0.059     0  02:13     0.00126      0.0387      -0.055
  R0043594             JUNCTION     0.018    0.027     0  02:10     0.00825      0.0118      -1.241
  R0021458             JUNCTION     0.015    0.034     0  02:10     0.00643      0.0184      -0.037
  R0019202             JUNCTION     0.006    0.030     0  02:12     0.00192      0.0203      -0.088
  R0019373             JUNCTION     0.013    0.013     0  02:10     0.00504     0.00504      -0.220
  R0019254             JUNCTION     0.011    0.021     0  02:10      0.0041     0.00895      -0.263
  R0019716             JUNCTION     0.015    0.100     0  02:14     0.00639        0.08      -0.161
  R0019946             JUNCTION     0.000    0.100     0  02:14           0      0.0802       0.214
  R0013935             JUNCTION     0.011    0.011     0  02:10     0.00391     0.00391      -0.516
  R0019939             JUNCTION     0.005    0.014     0  02:10     0.00141     0.00534      -0.061
  R0019944             JUNCTION     0.010    0.119     0  02:15     0.00363       0.103      -0.009
  R0043703             JUNCTION     0.012    0.103     0  02:15     0.00445      0.0844      -0.042
  R0019945             JUNCTION     0.000    0.117     0  02:15           0      0.0989       0.022
  R0039621             JUNCTION     0.000    0.000     0  02:11           0    1.04e-05       1.802 ltr
  R0019838             JUNCTION     0.019    0.019     0  02:10     0.00894     0.00895      -0.041
  R0039606             JUNCTION     0.000    0.029     0  02:12           0      0.0185       0.522
  R0019204             JUNCTION     0.000    0.000     0  00:00           0           0       0.000 ltr
  R0019205             JUNCTION     0.000    0.000     0  00:00           0           0       0.000 ltr
  R0019849             JUNCTION     0.000    0.031     0  02:11           0      0.0145       0.077
  R0019371             JUNCTION     0.000    0.000     0  00:00           0           0       0.000 ltr
  R0019718             JUNCTION     0.014    0.064     0  02:13     0.00547      0.0442      -1.305
  R0021442             JUNCTION     0.014    0.028     0  02:10     0.00636      0.0145      -0.125
  R0019247             JUNCTION     0.008    0.032     0  02:11     0.00282      0.0173      -0.424
  R0019719             JUNCTION     0.009    0.033     0  02:11     0.00297      0.0179      -0.063
  R0019767             JUNCTION     0.000    0.160     0  02:15           0       0.143       0.007
  R0019768             JUNCTION     0.000    0.160     0  02:16           0       0.143       0.042
  R0021453             JUNCTION     0.010    0.010     0  02:10     0.00357     0.00357       1.389
  R0019839             JUNCTION     0.019    0.031     0  02:10     0.00883      0.0178      -0.178
  R0019717             JUNCTION     0.022    0.095     0  02:14      0.0111      0.0739       0.314
  R0019252             JUNCTION     0.012    0.012     0  02:10     0.00482     0.00482      -0.500
  R0019721             JUNCTION     0.004    0.015     0  02:10     0.00124     0.00551       0.143
  R0019942             JUNCTION     0.000    0.020     0  02:10           0     0.00915       0.294
  R0019206             JUNCTION     0.000    0.000     0  00:00           0           0       0.000 ltr
  R0019840             JUNCTION     0.000    0.054     0  02:11           0       0.032       0.107
  R0043702             JUNCTION     0.019    0.067     0  02:11     0.00884      0.0408      -0.029
  R0019723             JUNCTION     0.010    0.013     0  02:10     0.00335     0.00424      -0.623
  R0019724             JUNCTION     0.003    0.003     0  02:10    0.000877    0.000877      -0.677
  R0021433             JUNCTION     0.013    0.013     0  02:10     0.00501     0.00501      -0.511
  R0021435             JUNCTION     0.009    0.020     0  02:10     0.00308     0.00812       0.243
  R0019769             OUTFALL      0.000    0.160     0  02:16           0       0.143       0.000
  
  
  **********************
  Node Surcharge Summary
  **********************
  
  No nodes were surcharged.
  
  
  *********************
  Node Flooding Summary
  *********************
  
  No nodes were flooded.
  
  
  ***********************
  Outfall Loading Summary
  ***********************
  
  -----------------------------------------------------------
                         Flow       Avg       Max       Total
                         Freq      Flow      Flow      Volume
  Outfall Node           Pcnt       CMS       CMS    10^6 ltr
  -----------------------------------------------------------
  R0019769               3.71     0.014     0.160       0.143
  -----------------------------------------------------------
  System                 3.71     0.014     0.160       0.143
  
  
  ********************
  Link Flow Summary
  ********************
  
  -----------------------------------------------------------------------------
                                 Maximum  Time of Max   Maximum    Max/    Max/
                                  |Flow|   Occurrence   |Veloc|    Full    Full
  Link                 Type          CMS  days hr:min     m/sec    Flow   Depth
  -----------------------------------------------------------------------------
  H0014431             CONDUIT     0.022     0  02:11      0.75    0.41    0.44
  H0014433             CONDUIT     0.011     0  02:10      0.57    0.14    0.32
  H0014352             CONDUIT     0.161     0  02:15      1.64    0.07    0.21
  H0014373             CONDUIT     0.160     0  02:15      2.15    0.07    0.17
  H0017981             CONDUIT     0.017     0  02:12      0.69    0.48    0.38
  H0017755             CONDUIT     0.028     0  02:13      0.87    0.23    0.31
  H0017791             CONDUIT     0.022     0  02:11      0.46    0.03    0.13
  H0017357             CONDUIT     0.000     0  00:00      0.00    0.00    0.13
  H0018216             CONDUIT     0.018     0  02:11      0.72    0.34    0.41
  H0016792             CONDUIT     0.100     0  02:14      1.01    0.06    0.21
  H0019507             CONDUIT     0.010     0  02:10      0.57    0.14    0.30
  H0019998             CONDUIT     0.119     0  02:15      1.80    0.05    0.16
  H0019576             CONDUIT     0.103     0  02:15      1.32    0.07    0.18
  H0020087             CONDUIT     0.000     0  02:11      0.02    0.00    0.11
  H0020211             CONDUIT     0.100     0  02:15      0.96    0.25    0.22
  H0018982             CONDUIT     0.029     0  02:12      0.56    0.05    0.14
  H0018753             CONDUIT     0.011     0  02:10      0.49    0.15    0.36
  H0018845             CONDUIT     0.000     0  00:00      0.00    0.00    0.00
  H0018863             CONDUIT     0.012     0  02:10      0.52    0.29    0.39
  H0019156             CONDUIT     0.000     0  00:00      0.00    0.00    0.00
  H0018929             CONDUIT     0.058     0  02:13      0.78    0.05    0.18
  H0018440             CONDUIT     0.027     0  02:11      0.81    0.48    0.48
  H0018456             CONDUIT     0.029     0  02:12      0.98    0.17    0.29
  H0018968             CONDUIT     0.160     0  02:16      2.45    0.06    0.16
  H0022036             CONDUIT     0.009     0  02:10      0.50    0.01    0.07
  H0021806             CONDUIT     0.030     0  02:12      0.85    0.26    0.33
  H0022111             CONDUIT     0.015     0  02:11      0.48    0.11    0.22
  H0021440             CONDUIT     0.095     0  02:14      1.38    0.06    0.17
  H0021704             CONDUIT     0.060     0  02:14      0.75    0.11    0.18
  H0020521             CONDUIT     0.011     0  02:10      0.50    0.22    0.36
  H0020755             CONDUIT     0.012     0  02:11      0.50    0.13    0.26
  H0020530             CONDUIT     0.161     0  02:15      1.56    0.14    0.22
  H0020618             CONDUIT     0.117     0  02:15      1.70    0.07    0.17
  H0021163             CONDUIT     0.020     0  02:10      0.91    0.33    0.35
  H0020497             CONDUIT     0.000     0  00:00      0.00    0.00    0.26
  H0024325             CONDUIT     0.030     0  02:11      1.14    0.09    0.19
  H0023585             CONDUIT     0.066     0  02:12      1.60    0.15    0.26
  H0024098             CONDUIT     0.031     0  02:11      1.15    0.36    0.43
  H0024235             CONDUIT     0.031     0  02:12      0.87    0.13    0.24
  H0024282             CONDUIT     0.000     0  00:00      0.00    0.00    0.00
  H0024308             CONDUIT     0.160     0  02:16      2.75    0.05    0.15
  H0024498             CONDUIT     0.025     0  02:11      0.90    0.39    0.42
  H0026990             CONDUIT     0.011     0  02:10      0.59    0.08    0.22
  H0041650             CONDUIT     0.030     0  02:12      0.56    0.03    0.14
  H0041011             CONDUIT     0.019     0  02:11      0.86    0.19    0.36
  H0045103             CONDUIT     0.028     0  02:12      0.58    0.04    0.13
  H0045104             CONDUIT     0.160     0  02:15      2.30    0.06    0.17
  H0045105             CONDUIT     0.003     0  02:10      0.30    0.05    0.21
  H0045106             CONDUIT     0.054     0  02:11      1.67    0.07    0.22
  H0045107             CONDUIT     0.012     0  02:10      0.60    0.19    0.33
  H0045108             CONDUIT     0.017     0  02:11      0.57    0.30    0.43
  
  
  ***************************
  Flow Classification Summary
  ***************************
  
  -------------------------------------------------------------------------------------
                      Adjusted    ---------- Fraction of Time in Flow Class ---------- 
                       /Actual         Up    Down  Sub   Sup   Up    Down  Norm  Inlet 
  Conduit               Length    Dry  Dry   Dry   Crit  Crit  Crit  Crit  Ltd   Ctrl  
  -------------------------------------------------------------------------------------
  H0014431                1.00   0.03  0.00  0.00  0.97  0.00  0.00  0.00  0.97  0.00
  H0014433                1.00   0.03  0.00  0.00  0.97  0.00  0.00  0.00  0.97  0.00
  H0014352                1.00   0.03  0.00  0.00  0.96  0.01  0.00  0.00  0.97  0.00
  H0014373                1.00   0.03  0.00  0.00  0.94  0.03  0.00  0.00  0.93  0.00
  H0017981                1.00   0.03  0.00  0.00  0.00  0.00  0.00  0.97  0.00  0.00
  H0017755                1.00   0.03  0.00  0.00  0.00  0.00  0.00  0.97  0.00  0.00
  H0017791                1.00   0.03  0.00  0.00  0.97  0.00  0.00  0.00  0.97  0.00
  H0017357                1.00   0.03  0.97  0.00  0.00  0.00  0.00  0.00  0.00  0.00
  H0018216                1.00   0.03  0.93  0.00  0.04  0.00  0.00  0.00  0.97  0.00
  H0016792                1.00   0.03  0.93  0.00  0.04  0.00  0.00  0.00  0.97  0.00
  H0019507                1.00   0.03  0.00  0.00  0.97  0.00  0.00  0.00  0.97  0.00
  H0019998                1.00   0.03  0.00  0.00  0.94  0.03  0.00  0.00  0.05  0.00
  H0019576                1.00   0.03  0.00  0.00  0.96  0.01  0.00  0.00  0.05  0.00
  H0020087                1.00   0.03  0.96  0.00  0.01  0.00  0.00  0.00  0.97  0.00
  H0020211                1.00   0.03  0.00  0.00  0.97  0.00  0.00  0.00  0.92  0.00
  H0018982                1.00   0.03  0.00  0.00  0.97  0.00  0.00  0.00  0.95  0.00
  H0018753                1.00   0.03  0.00  0.00  0.97  0.00  0.00  0.00  0.97  0.00
  H0018845                1.00   1.00  0.00  0.00  0.00  0.00  0.00  0.00  0.00  0.00
  H0018863                1.00   0.03  0.00  0.00  0.97  0.00  0.00  0.00  0.97  0.00
  H0019156                1.00   1.00  0.00  0.00  0.00  0.00  0.00  0.00  0.00  0.00
  H0018929                1.00   0.03  0.93  0.00  0.04  0.00  0.00  0.00  0.97  0.00
  H0018440                1.00   0.03  0.00  0.00  0.97  0.00  0.00  0.00  0.97  0.00
  H0018456                1.00   0.03  0.00  0.00  0.97  0.00  0.00  0.00  0.97  0.00
  H0018968                1.00   0.03  0.92  0.00  0.02  0.03  0.00  0.00  0.94  0.00
  H0022036                1.00   0.03  0.00  0.00  0.00  0.00  0.00  0.97  0.00  0.00
  H0021806                1.00   0.03  0.93  0.00  0.04  0.00  0.00  0.00  0.97  0.00
  H0022111                1.00   0.03  0.00  0.00  0.97  0.00  0.00  0.00  0.00  0.00
  H0021440                1.00   0.03  0.00  0.00  0.96  0.01  0.00  0.00  0.01  0.00
  H0021704                1.00   0.03  0.00  0.00  0.00  0.00  0.00  0.97  0.00  0.00
  H0020521                1.00   0.03  0.00  0.00  0.97  0.00  0.00  0.00  0.97  0.00
  H0020755                1.00   0.03  0.94  0.00  0.03  0.00  0.00  0.00  0.97  0.00
  H0020530                1.00   0.03  0.00  0.00  0.96  0.01  0.00  0.00  0.00  0.00
  H0020618                1.00   0.03  0.00  0.00  0.95  0.02  0.00  0.00  0.93  0.00
  H0021163                1.00   0.03  0.00  0.00  0.97  0.00  0.00  0.00  0.95  0.00
  H0020497                1.20   0.03  0.97  0.00  0.00  0.00  0.00  0.00  0.00  0.00
  H0024325                1.00   0.03  0.00  0.00  0.96  0.02  0.00  0.00  0.95  0.00
  H0023585                1.00   0.03  0.00  0.00  0.00  0.00  0.00  0.97  0.00  0.00
  H0024098                1.00   0.03  0.94  0.00  0.04  0.00  0.00  0.00  0.97  0.00
  H0024235                1.00   0.03  0.00  0.00  0.00  0.00  0.00  0.97  0.00  0.00
  H0024282                1.00   1.00  0.00  0.00  0.00  0.00  0.00  0.00  0.00  0.00
  H0024308                1.00   0.03  0.00  0.00  0.93  0.05  0.00  0.00  0.01  0.00
  H0024498                1.00   0.03  0.00  0.00  0.00  0.00  0.00  0.97  0.00  0.00
  H0026990                1.00   0.03  0.00  0.00  0.97  0.00  0.00  0.00  0.97  0.00
  H0041650                1.00   0.96  0.01  0.00  0.03  0.00  0.00  0.00  0.97  0.00
  H0041011                1.00   0.03  0.00  0.00  0.97  0.00  0.00  0.00  0.97  0.00
  H0045103                1.00   0.03  0.00  0.00  0.97  0.00  0.00  0.00  0.96  0.00
  H0045104                1.00   0.03  0.00  0.00  0.94  0.04  0.00  0.00  0.05  0.00
  H0045105                1.00   0.03  0.00  0.00  0.97  0.00  0.00  0.00  0.97  0.00
  H0045106                1.00   0.03  0.94  0.00  0.02  0.02  0.00  0.00  0.97  0.00
  H0045107                1.00   0.03  0.00  0.00  0.97  0.00  0.00  0.00  0.97  0.00
  H0045108                1.00   0.03  0.00  0.00  0.97  0.00  0.00  0.00  0.97  0.00
  
  
  *************************
  Conduit Surcharge Summary
  *************************
  
  No conduits were surcharged.
  

  Analysis begun on:  Fri Mar 22 15:54:40 2024
  Analysis ended on:  Fri Mar 22 15:54:49 2024
  Total elapsed time: 00:00:09