
  EPA STORM WATER MANAGEMENT MODEL - VERSION 5.2 (Build 5.2.4)
  PYSWMM TOOLKIT API - VERSION v1.0 (2023-11-27)
  ------------------------------------------------------------

  Gievenbeck_2015-09-17 15 45 00_hN3 26 
  
  ****************
  Analysis Options
  ****************
  Flow Units ............... CMS
  Process Models:
    Rainfall/Runoff ........ YES
    RDII ................... NO
    Snowmelt ............... NO
    Groundwater ............ NO
    Flow Routing ........... YES
    Ponding Allowed ........ NO
    Water Quality .......... NO
  Infiltration Method ...... HORTON
  Flow Routing Method ...... DYNWAVE
  Surcharge Method ......... SLOT
  Starting Date ............ 01/01/2024 00:00:00
  Ending Date .............. 01/04/2024 04:00:00
  Antecedent Dry Days ...... 14.0
  Report Time Step ......... 00:01:00
  Wet Time Step ............ 00:01:00
  Dry Time Step ............ 00:01:00
  Routing Time Step ........ 1.00 sec
  Variable Time Step ....... YES
  Maximum Trials ........... 8
  Number of Threads ........ 1
  Head Tolerance ........... 0.001500 m
  
  
  **************************        Volume         Depth
  Runoff Quantity Continuity     hectare-m            mm
  **************************     ---------       -------
  Total Precipitation ......         0.033         3.260
  Evaporation Loss .........         0.010         0.955
  Infiltration Loss ........         0.017         1.723
  Surface Runoff ...........         0.006         0.584
  Final Storage ............         0.000         0.000
  Continuity Error (%) .....        -0.062
  
  
  **************************        Volume        Volume
  Flow Routing Continuity        hectare-m      10^6 ltr
  **************************     ---------     ---------
  Dry Weather Inflow .......         0.000         0.000
  Wet Weather Inflow .......         0.006         0.059
  Groundwater Inflow .......         0.000         0.000
  RDII Inflow ..............         0.000         0.000
  External Inflow ..........         0.000         0.000
  External Outflow .........         0.006         0.059
  Flooding Loss ............         0.000         0.000
  Evaporation Loss .........         0.000         0.000
  Exfiltration Loss ........         0.000         0.000
  Initial Stored Volume ....         0.000         0.000
  Final Stored Volume ......         0.000         0.000
  Continuity Error (%) .....         0.000
  
  
  ***************************
  Time-Step Critical Elements
  ***************************
  None
  
  
  ********************************
  Highest Flow Instability Indexes
  ********************************
  All links are stable.
  
  
  *********************************
  Most Frequent Nonconverging Nodes
  *********************************
  Convergence obtained at all time steps.
  
  
  *************************
  Routing Time Step Summary
  *************************
  Minimum Time Step           :     0.50 sec
  Average Time Step           :     1.00 sec
  Maximum Time Step           :     1.00 sec
  % of Time in Steady State   :     0.00
  Average Iterations per Step :     2.00
  % of Steps Not Converging   :     0.00
  Time Step Frequencies       :
      1.000 -  0.871 sec      :   100.00 %
      0.871 -  0.758 sec      :     0.00 %
      0.758 -  0.660 sec      :     0.00 %
      0.660 -  0.574 sec      :     0.00 %
      0.574 -  0.500 sec      :     0.00 %
  
  
  ***************************
  Subcatchment Runoff Summary
  ***************************
  
  ------------------------------------------------------------------------------------------------------------------------------
                            Total      Total      Total      Total     Imperv       Perv      Total       Total     Peak  Runoff
                           Precip      Runon       Evap      Infil     Runoff     Runoff     Runoff      Runoff   Runoff   Coeff
  Subcatchment                 mm         mm         mm         mm         mm         mm         mm    10^6 ltr      CMS
  ------------------------------------------------------------------------------------------------------------------------------
  EZG_368                    3.26       0.00       0.95       1.73       0.68       0.00       0.58        0.00     0.00   0.178
  EZG_392                    3.26       0.00       0.95       1.73       0.69       0.00       0.58        0.00     0.00   0.179
  EZG_352                    3.26       0.00       0.95       1.73       0.68       0.00       0.58        0.00     0.00   0.177
  EZG_372                    3.26       0.00       0.94       1.73       0.70       0.00       0.59        0.00     0.00   0.182
  EZG_416                    3.26       0.00       0.94       1.73       0.69       0.00       0.58        0.00     0.00   0.179
  EZG_388                    3.26       0.00       0.95       1.73       0.68       0.00       0.58        0.00     0.00   0.178
  EZG_394                    3.26       0.00       0.94       1.73       0.69       0.00       0.58        0.00     0.00   0.179
  EZG_400                    3.26       0.00       0.94       1.73       0.69       0.00       0.59        0.00     0.00   0.180
  EZG_390                    3.26       0.00       0.95       1.73       0.69       0.00       0.58        0.00     0.00   0.179
  EZG_350                    3.26       0.00       0.95       1.73       0.68       0.00       0.58        0.00     0.00   0.178
  EZG_370                    3.26       0.00       0.95       1.73       0.68       0.00       0.58        0.00     0.00   0.178
  EZG_398                    3.26       0.00       0.93       1.73       0.70       0.00       0.59        0.00     0.00   0.182
  EZG_382                    3.26       0.00       0.93       1.74       0.70       0.00       0.60        0.00     0.00   0.183
  EZG_374                    3.26       0.00       1.14       1.43       0.81       0.00       0.69        0.00     0.00   0.212
  EZG_412                    3.26       0.00       0.93       1.74       0.71       0.00       0.60        0.00     0.00   0.185
  EZG_344                    3.26       0.00       0.94       1.73       0.69       0.00       0.59        0.00     0.00   0.180
  EZG_376                    3.26       0.00       0.94       1.73       0.69       0.00       0.59        0.00     0.00   0.180
  EZG_356                    3.26       0.00       0.96       1.73       0.68       0.00       0.57        0.00     0.00   0.176
  EZG_386                    3.26       0.00       0.96       1.73       0.67       0.00       0.57        0.00     0.00   0.175
  EZG_380                    3.26       0.00       0.95       1.73       0.68       0.00       0.58        0.00     0.00   0.178
  EZG_378                    3.26       0.00       0.95       1.73       0.69       0.00       0.58        0.00     0.00   0.179
  EZG_414                    3.26       0.00       0.93       1.74       0.70       0.00       0.60        0.00     0.00   0.183
  EZG_402                    3.26       0.00       0.95       1.73       0.69       0.00       0.58        0.00     0.00   0.179
  EZG_358                    3.26       0.00       0.96       1.73       0.68       0.00       0.57        0.00     0.00   0.176
  EZG_364                    3.26       0.00       0.96       1.73       0.68       0.00       0.57        0.00     0.00   0.176
  EZG_410                    3.26       0.00       0.94       1.73       0.69       0.00       0.59        0.00     0.00   0.180
  EZG_366                    3.26       0.00       0.94       1.73       0.69       0.00       0.59        0.00     0.00   0.180
  EZG_18259                  3.26       0.00       0.94       1.73       0.69       0.00       0.59        0.00     0.00   0.180
  EZG_18258                  3.26       0.00       0.93       1.74       0.70       0.00       0.60        0.00     0.00   0.184
  EZG_346                    3.26       0.00       0.93       1.76       0.67       0.00       0.57        0.00     0.00   0.175
  EZG_348                    3.26       0.00       0.92       1.76       0.68       0.00       0.58        0.00     0.00   0.177
  
  
  ******************
  Node Depth Summary
  ******************
  
  ---------------------------------------------------------------------------------
                                 Average  Maximum  Maximum  Time of Max    Reported
                                   Depth    Depth      HGL   Occurrence   Max Depth
  Node                 Type       Meters   Meters   Meters  days hr:min      Meters
  ---------------------------------------------------------------------------------
  R0019466             JUNCTION     0.00     0.05    69.50     0  02:58        0.05
  R0019468             JUNCTION     0.00     0.05    69.36     0  03:00        0.05
  R0019831             JUNCTION     0.00     0.03    69.20     0  02:56        0.03
  R0019825             JUNCTION     0.00     0.04    68.88     0  02:58        0.04
  R0019843             JUNCTION     0.00     0.07    67.70     0  03:08        0.07
  R0019368             JUNCTION     0.00     0.09    66.88     0  03:09        0.09
  R0019369             JUNCTION     0.00     0.07    66.66     0  03:10        0.07
  R0019370             JUNCTION     0.00     0.06    65.96     0  03:10        0.06
  R0019345             JUNCTION     0.00     0.05    69.95     0  03:01        0.05
  R0019346             JUNCTION     0.00     0.04    69.84     0  03:01        0.04
  R0043600             JUNCTION     0.00     0.05    69.72     0  03:03        0.05
  R0019203             JUNCTION     0.00     0.05    69.59     0  03:04        0.05
  R0043594             JUNCTION     0.00     0.04    69.77     0  02:58        0.04
  R0021458             JUNCTION     0.00     0.06    69.71     0  03:01        0.06
  R0019202             JUNCTION     0.00     0.05    69.63     0  03:03        0.05
  R0019373             JUNCTION     0.00     0.03    69.70     0  02:57        0.03
  R0019254             JUNCTION     0.00     0.04    70.08     0  02:58        0.04
  R0019716             JUNCTION     0.00     0.06    69.07     0  03:07        0.06
  R0019946             JUNCTION     0.00     0.12    68.74     0  03:08        0.12
  R0013935             JUNCTION     0.00     0.03    68.86     0  02:56        0.03
  R0019939             JUNCTION     0.00     0.04    68.61     0  02:57        0.04
  R0019944             JUNCTION     0.00     0.06    68.34     0  03:09        0.06
  R0043703             JUNCTION     0.00     0.07    68.67     0  03:09        0.07
  R0019945             JUNCTION     0.00     0.07    68.47     0  03:08        0.07
  R0039621             JUNCTION     0.00     0.00    69.57     0  00:00        0.00
  R0019838             JUNCTION     0.00     0.04    69.50     0  03:00        0.04
  R0039606             JUNCTION     0.00     0.05    69.64     0  03:03        0.05
  R0019204             JUNCTION     0.00     0.00    69.91     0  00:00        0.00
  R0019205             JUNCTION     0.00     0.00    69.62     0  00:00        0.00
  R0019849             JUNCTION     0.00     0.04    68.56     0  02:59        0.04
  R0019371             JUNCTION     0.00     0.00    70.41     0  00:00        0.00
  R0019718             JUNCTION     0.00     0.09    69.51     0  03:07        0.09
  R0021442             JUNCTION     0.00     0.05    70.10     0  02:59        0.05
  R0019247             JUNCTION     0.00     0.05    69.93     0  03:01        0.05
  R0019719             JUNCTION     0.00     0.05    69.73     0  03:03        0.05
  R0019767             JUNCTION     0.00     0.06    64.79     0  03:10        0.06
  R0019768             JUNCTION     0.00     0.06    63.83     0  03:11        0.06
  R0021453             JUNCTION     0.00     0.02    69.97     0  02:57        0.02
  R0019839             JUNCTION     0.00     0.04    69.43     0  02:59        0.04
  R0019717             JUNCTION     0.00     0.06    69.40     0  03:06        0.06
  R0019252             JUNCTION     0.00     0.03    70.22     0  02:57        0.03
  R0019721             JUNCTION     0.00     0.04    69.91     0  02:59        0.04
  R0019942             JUNCTION     0.00     0.03    68.68     0  02:59        0.03
  R0019206             JUNCTION     0.00     0.00    69.07     0  00:00        0.00
  R0019840             JUNCTION     0.00     0.03    69.00     0  03:00        0.03
  R0043702             JUNCTION     0.00     0.05    68.75     0  03:01        0.05
  R0019723             JUNCTION     0.00     0.03    70.11     0  02:56        0.03
  R0019724             JUNCTION     0.00     0.02    70.18     0  02:55        0.02
  R0021433             JUNCTION     0.00     0.03    70.42     0  02:56        0.03
  R0021435             JUNCTION     0.00     0.04    70.22     0  02:58        0.04
  R0019769             OUTFALL      0.00     0.06    63.44     0  03:11        0.06
  
  
  *******************
  Node Inflow Summary
  *******************
  
  -------------------------------------------------------------------------------------------------
                                  Maximum  Maximum                  Lateral       Total        Flow
                                  Lateral    Total  Time of Max      Inflow      Inflow     Balance
                                   Inflow   Inflow   Occurrence      Volume      Volume       Error
  Node                 Type           CMS      CMS  days hr:min    10^6 ltr    10^6 ltr     Percent
  -------------------------------------------------------------------------------------------------
  R0019466             JUNCTION     0.002    0.003     0  02:56      0.0024     0.00449      -0.104
  R0019468             JUNCTION     0.001    0.004     0  02:58      0.0014      0.0059       0.142
  R0019831             JUNCTION     0.002    0.002     0  02:55     0.00189     0.00189      -0.374
  R0019825             JUNCTION     0.002    0.003     0  02:55     0.00189     0.00379      -0.028
  R0019843             JUNCTION     0.000    0.026     0  03:08           0      0.0591      -0.045
  R0019368             JUNCTION     0.000    0.026     0  03:08           0      0.0591       0.005
  R0019369             JUNCTION     0.000    0.026     0  03:09           0      0.0591       0.013
  R0019370             JUNCTION     0.000    0.026     0  03:10           0      0.0591       0.002
  R0019345             JUNCTION     0.000    0.002     0  02:58           0     0.00372       0.511
  R0019346             JUNCTION     0.000    0.004     0  03:00     0.00024     0.00622       0.115
  R0043600             JUNCTION     0.000    0.004     0  03:02           0     0.00718       0.451
  R0019203             JUNCTION     0.001    0.008     0  03:03    0.000527       0.016      -0.104
  R0043594             JUNCTION     0.002    0.003     0  02:56      0.0034     0.00487      -0.637
  R0021458             JUNCTION     0.002    0.004     0  02:57     0.00266     0.00755      -0.068
  R0019202             JUNCTION     0.001    0.004     0  03:03    0.000801     0.00834      -0.058
  R0019373             JUNCTION     0.002    0.002     0  02:55     0.00209     0.00209      -0.176
  R0019254             JUNCTION     0.001    0.003     0  02:56      0.0017      0.0037      -0.312
  R0019716             JUNCTION     0.002    0.015     0  03:06     0.00264      0.0329      -0.138
  R0019946             JUNCTION     0.000    0.015     0  03:07           0       0.033       0.208
  R0013935             JUNCTION     0.001    0.001     0  02:55     0.00162     0.00162      -0.389
  R0019939             JUNCTION     0.001    0.002     0  02:55    0.000589     0.00222      -0.102
  R0019944             JUNCTION     0.001    0.019     0  03:08     0.00151      0.0423      -0.006
  R0043703             JUNCTION     0.002    0.016     0  03:08     0.00185      0.0347      -0.061
  R0019945             JUNCTION     0.000    0.018     0  03:08           0      0.0408       0.025
  R0039621             JUNCTION     0.000    0.000     0  00:00           0           0       0.000 ltr
  R0019838             JUNCTION     0.002    0.002     0  02:55     0.00368     0.00368      -0.000
  R0039606             JUNCTION     0.000    0.004     0  03:02           0     0.00757       0.440
  R0019204             JUNCTION     0.000    0.000     0  00:00           0           0       0.000 ltr
  R0019205             JUNCTION     0.000    0.000     0  00:00           0           0       0.000 ltr
  R0019849             JUNCTION     0.000    0.004     0  02:58           0       0.006       0.081
  R0019371             JUNCTION     0.000    0.000     0  00:00           0           0       0.000 ltr
  R0019718             JUNCTION     0.002    0.009     0  03:04     0.00226      0.0183       0.112
  R0021442             JUNCTION     0.002    0.004     0  02:58     0.00262     0.00598      -0.094
  R0019247             JUNCTION     0.001    0.004     0  02:59     0.00117     0.00716      -0.340
  R0019719             JUNCTION     0.001    0.004     0  03:01     0.00123     0.00745      -0.004
  R0019767             JUNCTION     0.000    0.026     0  03:10           0      0.0591       0.008
  R0019768             JUNCTION     0.000    0.026     0  03:11           0      0.0591       0.019
  R0021453             JUNCTION     0.001    0.001     0  02:55     0.00148     0.00148       1.101
  R0019839             JUNCTION     0.002    0.004     0  02:58     0.00364     0.00732      -0.133
  R0019717             JUNCTION     0.003    0.014     0  03:06     0.00456      0.0303      -0.011
  R0019252             JUNCTION     0.002    0.002     0  02:55       0.002       0.002      -0.354
  R0019721             JUNCTION     0.001    0.002     0  02:56    0.000518     0.00229       0.098
  R0019942             JUNCTION     0.000    0.002     0  02:58           0     0.00379       0.191
  R0019206             JUNCTION     0.000    0.000     0  00:00           0           0       0.000 ltr
  R0019840             JUNCTION     0.000    0.007     0  03:00           0      0.0132       0.074
  R0043702             JUNCTION     0.002    0.009     0  03:00     0.00364      0.0168      -0.006
  R0019723             JUNCTION     0.001    0.002     0  02:55     0.00139     0.00176      -0.429
  R0019724             JUNCTION     0.001    0.001     0  02:55    0.000367    0.000367      -0.292
  R0021433             JUNCTION     0.002    0.002     0  02:55     0.00208     0.00208      -0.374
  R0021435             JUNCTION     0.001    0.003     0  02:56     0.00128     0.00336       0.183
  R0019769             OUTFALL      0.000    0.026     0  03:11           0      0.0591       0.000
  
  
  **********************
  Node Surcharge Summary
  **********************
  
  No nodes were surcharged.
  
  
  *********************
  Node Flooding Summary
  *********************
  
  No nodes were flooded.
  
  
  ***********************
  Outfall Loading Summary
  ***********************
  
  -----------------------------------------------------------
                         Flow       Avg       Max       Total
                         Freq      Flow      Flow      Volume
  Outfall Node           Pcnt       CMS       CMS    10^6 ltr
  -----------------------------------------------------------
  R0019769               3.88     0.006     0.026       0.059
  -----------------------------------------------------------
  System                 3.88     0.006     0.026       0.059
  
  
  ********************
  Link Flow Summary
  ********************
  
  -----------------------------------------------------------------------------
                                 Maximum  Time of Max   Maximum    Max/    Max/
                                  |Flow|   Occurrence   |Veloc|    Full    Full
  Link                 Type          CMS  days hr:min     m/sec    Flow   Depth
  -----------------------------------------------------------------------------
  H0014431             CONDUIT     0.003     0  02:59      0.41    0.05    0.15
  H0014433             CONDUIT     0.001     0  02:56      0.37    0.02    0.12
  H0014352             CONDUIT     0.026     0  03:08      0.93    0.01    0.09
  H0014373             CONDUIT     0.026     0  03:10      1.24    0.01    0.07
  H0017981             CONDUIT     0.002     0  03:01      0.35    0.06    0.14
  H0017755             CONDUIT     0.004     0  03:03      0.49    0.03    0.11
  H0017791             CONDUIT     0.003     0  02:58      0.26    0.00    0.05
  H0017357             CONDUIT     0.000     0  00:00      0.00    0.00    0.05
  H0018216             CONDUIT     0.002     0  02:58      0.42    0.04    0.15
  H0016792             CONDUIT     0.015     0  03:07      0.60    0.01    0.10
  H0019507             CONDUIT     0.001     0  02:56      0.36    0.02    0.11
  H0019998             CONDUIT     0.019     0  03:09      1.02    0.01    0.07
  H0019576             CONDUIT     0.016     0  03:09      0.74    0.01    0.07
  H0020087             CONDUIT     0.000     0  00:00      0.00    0.00    0.04
  H0020211             CONDUIT     0.015     0  03:08      0.46    0.04    0.10
  H0018982             CONDUIT     0.004     0  03:02      0.29    0.01    0.06
  H0018753             CONDUIT     0.001     0  02:57      0.28    0.02    0.13
  H0018845             CONDUIT     0.000     0  00:00      0.00    0.00    0.00
  H0018863             CONDUIT     0.002     0  02:57      0.30    0.04    0.14
  H0019156             CONDUIT     0.000     0  00:00      0.00    0.00    0.00
  H0018929             CONDUIT     0.008     0  03:04      0.39    0.01    0.08
  H0018440             CONDUIT     0.004     0  02:59      0.44    0.06    0.17
  H0018456             CONDUIT     0.004     0  03:01      0.53    0.02    0.11
  H0018968             CONDUIT     0.026     0  03:11      1.40    0.01    0.07
  H0022036             CONDUIT     0.001     0  02:57      0.42    0.00    0.02
  H0021806             CONDUIT     0.004     0  03:02      0.45    0.04    0.13
  H0022111             CONDUIT     0.002     0  03:00      0.25    0.01    0.08
  H0021440             CONDUIT     0.014     0  03:06      0.77    0.01    0.07
  H0021704             CONDUIT     0.009     0  03:07      0.39    0.02    0.08
  H0020521             CONDUIT     0.001     0  02:57      0.29    0.03    0.13
  H0020755             CONDUIT     0.002     0  02:59      0.28    0.02    0.10
  H0020530             CONDUIT     0.026     0  03:09      0.89    0.02    0.09
  H0020618             CONDUIT     0.018     0  03:09      0.96    0.01    0.07
  H0021163             CONDUIT     0.002     0  02:58      0.49    0.04    0.12
  H0020497             CONDUIT     0.000     0  00:00      0.00    0.00    0.11
  H0024325             CONDUIT     0.004     0  03:00      0.60    0.01    0.07
  H0023585             CONDUIT     0.009     0  03:01      0.88    0.02    0.10
  H0024098             CONDUIT     0.004     0  02:59      0.63    0.05    0.17
  H0024235             CONDUIT     0.004     0  03:03      0.49    0.02    0.09
  H0024282             CONDUIT     0.000     0  00:00      0.00    0.00    0.00
  H0024308             CONDUIT     0.026     0  03:11      1.58    0.01    0.06
  H0024498             CONDUIT     0.003     0  03:00      0.50    0.05    0.15
  H0026990             CONDUIT     0.001     0  02:56      0.34    0.01    0.08
  H0041650             CONDUIT     0.004     0  03:03      0.31    0.01    0.06
  H0041011             CONDUIT     0.002     0  02:59      0.46    0.02    0.13
  H0045103             CONDUIT     0.004     0  03:03      0.32    0.00    0.05
  H0045104             CONDUIT     0.026     0  03:10      1.32    0.01    0.07
  H0045105             CONDUIT     0.000     0  02:55      0.21    0.01    0.08
  H0045106             CONDUIT     0.007     0  03:01      0.90    0.01    0.08
  H0045107             CONDUIT     0.001     0  02:56      0.36    0.02    0.12
  H0045108             CONDUIT     0.002     0  02:58      0.32    0.04    0.15
  
  
  ***************************
  Flow Classification Summary
  ***************************
  
  -------------------------------------------------------------------------------------
                      Adjusted    ---------- Fraction of Time in Flow Class ---------- 
                       /Actual         Up    Down  Sub   Sup   Up    Down  Norm  Inlet 
  Conduit               Length    Dry  Dry   Dry   Crit  Crit  Crit  Crit  Ltd   Ctrl  
  -------------------------------------------------------------------------------------
  H0014431                1.00   0.04  0.92  0.00  0.04  0.00  0.00  0.00  0.96  0.00
  H0014433                1.00   0.04  0.00  0.00  0.96  0.00  0.00  0.00  0.96  0.00
  H0014352                1.00   0.04  0.00  0.00  0.95  0.02  0.00  0.00  0.96  0.00
  H0014373                1.00   0.04  0.00  0.00  0.93  0.03  0.00  0.00  0.91  0.00
  H0017981                1.00   0.04  0.00  0.00  0.00  0.00  0.00  0.96  0.00  0.00
  H0017755                1.00   0.04  0.00  0.00  0.00  0.00  0.00  0.96  0.00  0.00
  H0017791                1.00   0.04  0.00  0.00  0.96  0.00  0.00  0.00  0.96  0.00
  H0017357                1.00   0.04  0.96  0.00  0.00  0.00  0.00  0.00  0.00  0.00
  H0018216                1.00   0.04  0.92  0.00  0.04  0.00  0.00  0.00  0.96  0.00
  H0016792                1.00   0.04  0.92  0.00  0.05  0.00  0.00  0.00  0.96  0.00
  H0019507                1.00   0.04  0.00  0.00  0.96  0.00  0.00  0.00  0.96  0.00
  H0019998                1.00   0.04  0.00  0.00  0.93  0.03  0.00  0.00  0.05  0.00
  H0019576                1.00   0.04  0.00  0.00  0.95  0.01  0.00  0.00  0.05  0.00
  H0020087                1.00   0.04  0.96  0.00  0.00  0.00  0.00  0.00  0.00  0.00
  H0020211                1.00   0.04  0.00  0.00  0.96  0.00  0.00  0.00  0.91  0.00
  H0018982                1.00   0.04  0.00  0.00  0.96  0.00  0.00  0.00  0.94  0.00
  H0018753                1.00   0.04  0.00  0.00  0.96  0.00  0.00  0.00  0.96  0.00
  H0018845                1.00   1.00  0.00  0.00  0.00  0.00  0.00  0.00  0.00  0.00
  H0018863                1.00   0.04  0.00  0.00  0.96  0.00  0.00  0.00  0.96  0.00
  H0019156                1.00   1.00  0.00  0.00  0.00  0.00  0.00  0.00  0.00  0.00
  H0018929                1.00   0.04  0.92  0.00  0.04  0.00  0.00  0.00  0.96  0.00
  H0018440                1.00   0.04  0.00  0.00  0.96  0.00  0.00  0.00  0.96  0.00
  H0018456                1.00   0.04  0.00  0.00  0.96  0.00  0.00  0.00  0.96  0.00
  H0018968                1.00   0.04  0.00  0.00  0.92  0.04  0.00  0.00  0.93  0.00
  H0022036                1.00   0.04  0.00  0.00  0.00  0.00  0.00  0.96  0.00  0.00
  H0021806                1.00   0.04  0.92  0.00  0.04  0.00  0.00  0.00  0.95  0.00
  H0022111                1.00   0.04  0.00  0.00  0.96  0.00  0.00  0.00  0.00  0.00
  H0021440                1.00   0.04  0.00  0.00  0.95  0.02  0.00  0.00  0.01  0.00
  H0021704                1.00   0.04  0.00  0.00  0.00  0.00  0.00  0.96  0.00  0.00
  H0020521                1.00   0.04  0.00  0.00  0.96  0.00  0.00  0.00  0.96  0.00
  H0020755                1.00   0.04  0.93  0.00  0.03  0.00  0.00  0.00  0.96  0.00
  H0020530                1.00   0.04  0.00  0.00  0.95  0.01  0.00  0.00  0.00  0.00
  H0020618                1.00   0.04  0.00  0.00  0.94  0.02  0.00  0.00  0.91  0.00
  H0021163                1.00   0.04  0.00  0.00  0.96  0.00  0.00  0.00  0.93  0.00
  H0020497                1.20   0.04  0.96  0.00  0.00  0.00  0.00  0.00  0.00  0.00
  H0024325                1.00   0.04  0.00  0.00  0.95  0.02  0.00  0.00  0.93  0.00
  H0023585                1.00   0.04  0.00  0.00  0.00  0.00  0.00  0.96  0.00  0.00
  H0024098                1.00   0.04  0.92  0.00  0.04  0.00  0.00  0.00  0.96  0.00
  H0024235                1.00   0.04  0.00  0.00  0.00  0.00  0.00  0.96  0.00  0.00
  H0024282                1.00   1.00  0.00  0.00  0.00  0.00  0.00  0.00  0.00  0.00
  H0024308                1.00   0.04  0.00  0.00  0.91  0.05  0.00  0.00  0.01  0.00
  H0024498                1.00   0.04  0.00  0.00  0.00  0.00  0.00  0.96  0.00  0.00
  H0026990                1.00   0.04  0.00  0.00  0.96  0.00  0.00  0.00  0.96  0.00
  H0041650                1.00   0.96  0.01  0.00  0.03  0.00  0.00  0.00  0.96  0.00
  H0041011                1.00   0.04  0.00  0.00  0.96  0.00  0.00  0.00  0.96  0.00
  H0045103                1.00   0.04  0.00  0.00  0.96  0.00  0.00  0.00  0.95  0.00
  H0045104                1.00   0.04  0.00  0.00  0.92  0.04  0.00  0.00  0.05  0.00
  H0045105                1.00   0.04  0.00  0.00  0.96  0.00  0.00  0.00  0.96  0.00
  H0045106                1.00   0.04  0.92  0.00  0.02  0.02  0.00  0.00  0.96  0.00
  H0045107                1.00   0.04  0.00  0.00  0.96  0.00  0.00  0.00  0.96  0.00
  H0045108                1.00   0.04  0.00  0.00  0.96  0.00  0.00  0.00  0.96  0.00
  
  
  *************************
  Conduit Surcharge Summary
  *************************
  
  No conduits were surcharged.
  

  Analysis begun on:  Fri Mar 22 15:54:30 2024
  Analysis ended on:  Fri Mar 22 15:54:39 2024
  Total elapsed time: 00:00:09