
  EPA STORM WATER MANAGEMENT MODEL - VERSION 5.2 (Build 5.2.4)
  PYSWMM TOOLKIT API - VERSION v1.0 (2023-11-27)
  ------------------------------------------------------------

  Gievenbeck_e2_T50D240 
  
  ****************
  Analysis Options
  ****************
  Flow Units ............... CMS
  Process Models:
    Rainfall/Runoff ........ YES
    RDII ................... NO
    Snowmelt ............... NO
    Groundwater ............ NO
    Flow Routing ........... YES
    Ponding Allowed ........ NO
    Water Quality .......... NO
  Infiltration Method ...... HORTON
  Flow Routing Method ...... DYNWAVE
  Surcharge Method ......... SLOT
  Starting Date ............ 01/01/2024 00:00:00
  Ending Date .............. 01/04/2024 04:00:00
  Antecedent Dry Days ...... 14.0
  Report Time Step ......... 00:01:00
  Wet Time Step ............ 00:01:00
  Dry Time Step ............ 00:01:00
  Routing Time Step ........ 1.00 sec
  Variable Time Step ....... YES
  Maximum Trials ........... 8
  Number of Threads ........ 1
  Head Tolerance ........... 0.001500 m
  
  
  **************************        Volume         Depth
  Runoff Quantity Continuity     hectare-m            mm
  **************************     ---------       -------
  Total Precipitation ......         0.570        56.340
  Evaporation Loss .........         0.010         0.954
  Infiltration Loss ........         0.233        23.003
  Surface Runoff ...........         0.329        32.459
  Final Storage ............         0.000         0.000
  Continuity Error (%) .....        -0.135
  
  
  **************************        Volume        Volume
  Flow Routing Continuity        hectare-m      10^6 ltr
  **************************     ---------     ---------
  Dry Weather Inflow .......         0.000         0.000
  Wet Weather Inflow .......         0.329         3.286
  Groundwater Inflow .......         0.000         0.000
  RDII Inflow ..............         0.000         0.000
  External Inflow ..........         0.000         0.000
  External Outflow .........         0.312         3.124
  Flooding Loss ............         0.017         0.168
  Evaporation Loss .........         0.000         0.000
  Exfiltration Loss ........         0.000         0.000
  Initial Stored Volume ....         0.000         0.000
  Final Stored Volume ......         0.000         0.000
  Continuity Error (%) .....        -0.184
  
  
  *************************
  Highest Continuity Errors
  *************************
  Node R0019206 (2.15%)
  
  
  ***************************
  Time-Step Critical Elements
  ***************************
  None
  
  
  ********************************
  Highest Flow Instability Indexes
  ********************************
  All links are stable.
  
  
  *********************************
  Most Frequent Nonconverging Nodes
  *********************************
  Convergence obtained at all time steps.
  
  
  *************************
  Routing Time Step Summary
  *************************
  Minimum Time Step           :     0.34 sec
  Average Time Step           :     1.00 sec
  Maximum Time Step           :     1.00 sec
  % of Time in Steady State   :     0.00
  Average Iterations per Step :     2.00
  % of Steps Not Converging   :     0.00
  Time Step Frequencies       :
      1.000 -  0.871 sec      :    99.98 %
      0.871 -  0.758 sec      :     0.01 %
      0.758 -  0.660 sec      :     0.00 %
      0.660 -  0.574 sec      :     0.00 %
      0.574 -  0.500 sec      :     0.00 %
  
  
  ***************************
  Subcatchment Runoff Summary
  ***************************
  
  ------------------------------------------------------------------------------------------------------------------------------
                            Total      Total      Total      Total     Imperv       Perv      Total       Total     Peak  Runoff
                           Precip      Runon       Evap      Infil     Runoff     Runoff     Runoff      Runoff   Runoff   Coeff
  Subcatchment                 mm         mm         mm         mm         mm         mm         mm    10^6 ltr      CMS
  ------------------------------------------------------------------------------------------------------------------------------
  EZG_368                   56.34       0.00       0.95      23.16      27.27       9.12      32.30        0.13     0.17   0.573
  EZG_392                   56.34       0.00       0.94      23.02      27.28       9.26      32.45        0.11     0.14   0.576
  EZG_352                   56.34       0.00       0.95      23.38      27.26       8.90      32.07        0.19     0.24   0.569
  EZG_372                   56.34       0.00       0.93      22.58      27.30       9.72      32.93        0.04     0.07   0.584
  EZG_416                   56.34       0.00       0.94      22.97      27.28       9.32      32.51        0.09     0.13   0.577
  EZG_388                   56.34       0.00       0.95      23.22      27.27       9.06      32.24        0.15     0.19   0.572
  EZG_394                   56.34       0.00       0.94      22.94      27.28       9.35      32.54        0.09     0.12   0.578
  EZG_400                   56.34       0.00       0.94      22.90      27.28       9.39      32.58        0.08     0.12   0.578
  EZG_390                   56.34       0.00       0.94      23.01      27.28       9.28      32.46        0.10     0.14   0.576
  EZG_350                   56.34       0.00       0.95      23.23      27.27       9.06      32.24        0.15     0.19   0.572
  EZG_370                   56.34       0.00       0.95      23.08      27.28       9.21      32.39        0.12     0.15   0.575
  EZG_398                   56.34       0.00       0.93      22.44      27.31       9.87      33.08        0.03     0.05   0.587
  EZG_382                   56.34       0.00       0.93      22.39      27.31       9.92      33.13        0.03     0.04   0.588
  EZG_374                   56.34       0.00       1.14      18.84      32.72       8.63      36.43        0.14     0.18   0.647
  EZG_412                   56.34       0.00       0.92      22.09      27.33      10.24      33.47        0.01     0.02   0.594
  EZG_344                   56.34       0.00       0.94      22.89      27.28       9.40      32.59        0.08     0.11   0.579
  EZG_376                   56.34       0.00       0.94      22.77      27.29       9.53      32.73        0.07     0.09   0.581
  EZG_356                   56.34       0.00       0.95      23.44      27.26       8.84      32.01        0.21     0.25   0.568
  EZG_386                   56.34       0.00       0.96      23.58      27.25       8.69      31.86        0.25     0.30   0.565
  EZG_380                   56.34       0.00       0.95      23.13      27.27       9.16      32.34        0.13     0.16   0.574
  EZG_378                   56.34       0.00       0.95      23.06      27.28       9.23      32.42        0.11     0.15   0.575
  EZG_414                   56.34       0.00       0.93      22.38      27.31       9.93      33.14        0.03     0.04   0.588
  EZG_402                   56.34       0.00       0.94      23.03      27.28       9.26      32.45        0.11     0.14   0.576
  EZG_358                   56.34       0.00       0.95      23.43      27.26       8.85      32.02        0.20     0.25   0.568
  EZG_364                   56.34       0.00       0.95      23.43      27.26       8.85      32.02        0.20     0.25   0.568
  EZG_410                   56.34       0.00       0.94      22.79      27.29       9.50      32.70        0.07     0.10   0.580
  EZG_366                   56.34       0.00       0.94      22.86      27.29       9.43      32.63        0.08     0.11   0.579
  EZG_18259                 56.34       0.00       0.94      22.86      27.29       9.44      32.63        0.08     0.11   0.579
  EZG_18258                 56.34       0.00       0.93      22.24      27.32      10.07      33.30        0.02     0.03   0.591
  EZG_346                   56.34       0.00       0.93      23.52      26.73       9.25      31.97        0.12     0.15   0.567
  EZG_348                   56.34       0.00       0.92      23.24      26.74       9.53      32.26        0.07     0.10   0.573
  
  
  ******************
  Node Depth Summary
  ******************
  
  ---------------------------------------------------------------------------------
                                 Average  Maximum  Maximum  Time of Max    Reported
                                   Depth    Depth      HGL   Occurrence   Max Depth
  Node                 Type       Meters   Meters   Meters  days hr:min      Meters
  ---------------------------------------------------------------------------------
  R0019466             JUNCTION     0.01     2.81    72.26     0  03:24        2.81
  R0019468             JUNCTION     0.01     2.73    72.04     0  03:24        2.73
  R0019831             JUNCTION     0.01     1.66    70.83     0  03:22        1.66
  R0019825             JUNCTION     0.01     1.50    70.34     0  03:21        1.50
  R0019843             JUNCTION     0.01     1.85    69.48     0  03:23        1.71
  R0019368             JUNCTION     0.01     1.81    68.60     0  03:23        1.61
  R0019369             JUNCTION     0.01     0.97    67.56     0  03:26        0.91
  R0019370             JUNCTION     0.01     0.67    66.57     0  03:26        0.66
  R0019345             JUNCTION     0.01     1.85    71.75     0  03:26        1.75
  R0019346             JUNCTION     0.01     1.77    71.57     0  03:26        1.77
  R0043600             JUNCTION     0.01     2.13    71.80     0  03:25        1.68
  R0019203             JUNCTION     0.01     1.97    71.51     0  03:25        1.62
  R0043594             JUNCTION     0.01     2.32    72.05     0  03:25        1.41
  R0021458             JUNCTION     0.01     2.28    71.93     0  03:25        1.55
  R0019202             JUNCTION     0.01     1.95    71.53     0  03:25        1.55
  R0019373             JUNCTION     0.01     2.61    72.28     0  03:25        2.54
  R0019254             JUNCTION     0.01     2.13    72.17     0  03:24        2.13
  R0019716             JUNCTION     0.01     1.89    70.90     0  03:25        1.89
  R0019946             JUNCTION     0.01     1.95    70.57     0  03:26        1.88
  R0013935             JUNCTION     0.00     1.62    70.45     0  03:22        1.62
  R0019939             JUNCTION     0.01     1.78    70.35     0  03:26        1.76
  R0019944             JUNCTION     0.01     1.54    69.82     0  03:26        1.54
  R0043703             JUNCTION     0.01     1.63    70.23     0  03:26        1.58
  R0019945             JUNCTION     0.01     1.58    69.98     0  03:26        1.57
  R0039621             JUNCTION     0.00     1.56    71.13     0  03:23        1.56
  R0019838             JUNCTION     0.01     1.80    71.26     0  03:23        1.78
  R0039606             JUNCTION     0.01     1.93    71.52     0  03:25        1.54
  R0019204             JUNCTION     0.00     0.00    69.91     0  00:00        0.00
  R0019205             JUNCTION     0.00     0.00    69.62     0  00:00        0.00
  R0019849             JUNCTION     0.01     1.65    70.17     0  03:26        1.61
  R0019371             JUNCTION     0.00     0.00    70.41     0  00:00        0.00
  R0019718             JUNCTION     0.01     2.01    71.43     0  03:25        1.74
  R0021442             JUNCTION     0.01     2.05    72.10     0  03:21        2.05
  R0019247             JUNCTION     0.01     2.12    72.00     0  03:25        2.11
  R0019719             JUNCTION     0.01     1.75    71.43     0  03:25        1.74
  R0019767             JUNCTION     0.01     0.71    65.44     0  03:26        0.70
  R0019768             JUNCTION     0.01     0.58    64.35     0  03:26        0.57
  R0021453             JUNCTION     0.00     2.06    72.01     0  03:25        1.15
  R0019839             JUNCTION     0.01     1.94    71.33     0  03:24        1.94
  R0019717             JUNCTION     0.01     1.89    71.23     0  03:25        1.81
  R0019252             JUNCTION     0.01     1.94    72.13     0  03:22        1.94
  R0019721             JUNCTION     0.01     1.80    71.67     0  03:25        1.73
  R0019942             JUNCTION     0.01     1.61    70.26     0  03:26        1.48
  R0019206             JUNCTION     0.00     0.23    69.30     0  03:26        0.14
  R0019840             JUNCTION     0.01     2.05    71.02     0  03:24        2.04
  R0043702             JUNCTION     0.01     2.23    70.93     0  03:24        2.23
  R0019723             JUNCTION     0.00     1.72    71.80     0  03:25        1.70
  R0019724             JUNCTION     0.00     1.71    71.87     0  03:25        1.62
  R0021433             JUNCTION     0.01     2.15    72.54     0  03:21        2.15
  R0021435             JUNCTION     0.01     2.11    72.29     0  03:21        2.11
  R0019769             OUTFALL      0.01     0.58    63.96     0  03:26        0.57
  
  
  *******************
  Node Inflow Summary
  *******************
  
  -------------------------------------------------------------------------------------------------
                                  Maximum  Maximum                  Lateral       Total        Flow
                                  Lateral    Total  Time of Max      Inflow      Inflow     Balance
                                   Inflow   Inflow   Occurrence      Volume      Volume       Error
  Node                 Type           CMS      CMS  days hr:min    10^6 ltr    10^6 ltr     Percent
  -------------------------------------------------------------------------------------------------
  R0019466             JUNCTION     0.174    0.174     0  03:25       0.133       0.201       0.027
  R0019468             JUNCTION     0.108    0.183     0  03:25      0.0781       0.259      -0.009
  R0019831             JUNCTION     0.141    0.141     0  03:25       0.105       0.105       0.079
  R0019825             JUNCTION     0.141    0.242     0  03:25       0.105       0.206       0.069
  R0019843             JUNCTION     0.000    2.585     0  03:26           0        3.12      -0.060
  R0019368             JUNCTION     0.000    2.521     0  03:26           0        3.12      -0.030
  R0019369             JUNCTION     0.000    2.531     0  03:26           0        3.12      -0.010
  R0019370             JUNCTION     0.000    2.526     0  03:26           0        3.12      -0.002
  R0019345             JUNCTION     0.000    0.162     0  03:22           0       0.182       0.021
  R0019346             JUNCTION     0.022    0.315     0  03:24      0.0134       0.322       0.013
  R0043600             JUNCTION     0.000    0.222     0  03:24           0       0.324      -0.100
  R0019203             JUNCTION     0.045    0.930     0  03:25      0.0293       0.887      -0.063
  R0043594             JUNCTION     0.235    0.608     0  03:25       0.189       0.283      -0.254
  R0021458             JUNCTION     0.190    0.616     0  03:25       0.148       0.431      -0.044
  R0019202             JUNCTION     0.066    0.801     0  03:25      0.0446       0.535      -0.248
  R0019373             JUNCTION     0.154    0.227     0  03:24       0.116       0.134       0.808
  R0019254             JUNCTION     0.128    0.174     0  03:22      0.0947       0.182       0.020
  R0019716             JUNCTION     0.189    1.670     0  03:25       0.147        1.81      -0.017
  R0019946             JUNCTION     0.000    1.670     0  03:26           0        1.81      -0.005
  R0013935             JUNCTION     0.123    0.123     0  03:25      0.0903      0.0903       0.037
  R0019939             JUNCTION     0.050    0.128     0  03:23      0.0327       0.115      -0.042
  R0019944             JUNCTION     0.115    1.987     0  03:26      0.0839        2.28       0.013
  R0043703             JUNCTION     0.138    1.756     0  03:25       0.103        1.91      -0.014
  R0019945             JUNCTION     0.000    1.912     0  03:26           0        2.19      -0.021
  R0039621             JUNCTION     0.000    0.233     0  03:25           0      0.0269      -1.182
  R0019838             JUNCTION     0.252    0.252     0  03:25       0.205       0.209      -0.085
  R0039606             JUNCTION     0.000    0.610     0  03:25           0       0.428       0.109
  R0019204             JUNCTION     0.000    0.000     0  00:00           0           0       0.000 ltr
  R0019205             JUNCTION     0.000    0.000     0  00:00           0           0       0.000 ltr
  R0019849             JUNCTION     0.000    0.223     0  03:23           0       0.283       0.001
  R0019371             JUNCTION     0.000    0.000     0  00:00           0           0       0.000 ltr
  R0019718             JUNCTION     0.165    1.052     0  03:25       0.126        1.01      -0.349
  R0021442             JUNCTION     0.179    0.252     0  03:25       0.138       0.286       0.002
  R0019247             JUNCTION     0.092    0.224     0  03:24      0.0653       0.325       0.111
  R0019719             JUNCTION     0.097    0.399     0  03:24      0.0687        0.39       0.470
  R0019767             JUNCTION     0.000    2.527     0  03:26           0        3.12      -0.003
  R0019768             JUNCTION     0.000    2.512     0  03:26           0        3.12       0.004
  R0021453             JUNCTION     0.114    0.541     0  03:25      0.0824       0.086      -1.562
  R0019839             JUNCTION     0.250    0.402     0  03:23       0.203       0.385       0.046
  R0019717             JUNCTION     0.304    1.539     0  03:25       0.254        1.66       0.008
  R0019252             JUNCTION     0.148    0.149     0  03:25       0.111       0.111      -0.012
  R0019721             JUNCTION     0.044    0.164     0  03:24      0.0288       0.127       0.046
  R0019942             JUNCTION     0.000    0.125     0  03:21           0       0.167      -0.185
  R0019206             JUNCTION     0.000    0.078     0  03:23           0     0.00262       2.197
  R0019840             JUNCTION     0.000    0.535     0  03:23           0       0.643      -0.039
  R0043702             JUNCTION     0.250    0.716     0  03:23       0.203       0.846       0.346
  R0019723             JUNCTION     0.108    0.133     0  03:25      0.0775      0.0982      -0.124
  R0019724             JUNCTION     0.032    0.054     0  03:22      0.0204      0.0206      -0.335
  R0021433             JUNCTION     0.154    0.154     0  03:25       0.116       0.116      -0.135
  R0021435             JUNCTION     0.101    0.172     0  03:25      0.0718       0.173      -0.018
  R0019769             OUTFALL      0.000    2.519     0  03:26           0        3.12       0.000
  
  
  **********************
  Node Surcharge Summary
  **********************
  
  Surcharging occurs when water rises above the top of the highest conduit.
  ---------------------------------------------------------------------
                                               Max. Height   Min. Depth
                                   Hours       Above Crown    Below Rim
  Node                 Type      Surcharged         Meters       Meters
  ---------------------------------------------------------------------
  R0019466             JUNCTION        0.23          2.510        0.000
  R0019468             JUNCTION        0.23          2.430        0.000
  R0019831             JUNCTION        0.16          1.360        0.000
  R0019825             JUNCTION        0.20          1.200        0.000
  R0019843             JUNCTION        0.11          0.948        1.672
  R0019368             JUNCTION        0.14          0.908        0.142
  R0019369             JUNCTION        0.02          0.067        0.983
  R0019345             JUNCTION        0.16          1.552        0.198
  R0019346             JUNCTION        0.13          1.366        0.374
  R0043600             JUNCTION        0.15          1.727        0.853
  R0019203             JUNCTION        0.05          1.074        0.906
  R0043594             JUNCTION        0.03          1.393        0.427
  R0021458             JUNCTION        0.04          1.375        0.705
  R0019202             JUNCTION        0.05          1.053        0.947
  R0019373             JUNCTION        0.17          2.308        0.192
  R0019254             JUNCTION        0.18          1.830        0.000
  R0019716             JUNCTION        0.08          0.995        0.725
  R0019946             JUNCTION        0.11          1.050        0.470
  R0013935             JUNCTION        0.17          1.320        0.000
  R0019939             JUNCTION        0.24          1.482        0.138
  R0019944             JUNCTION        0.06          0.644        0.886
  R0043703             JUNCTION        0.06          0.728        0.592
  R0019945             JUNCTION        0.06          0.676        0.784
  R0039621             JUNCTION        0.08          1.060        0.000
  R0019838             JUNCTION        0.09          1.300        0.000
  R0039606             JUNCTION        0.05          1.031        0.969
  R0019849             JUNCTION        0.25          1.351        0.579
  R0019718             JUNCTION        0.06          1.107        0.893
  R0021442             JUNCTION        0.26          1.750        0.000
  R0019247             JUNCTION        0.17          1.721        0.139
  R0019719             JUNCTION        0.11          1.246        0.554
  R0021453             JUNCTION        0.02          1.158        0.342
  R0019839             JUNCTION        0.09          1.445        0.205
  R0019717             JUNCTION        0.05          0.955        0.895
  R0019252             JUNCTION        0.15          1.640        0.000
  R0019721             JUNCTION        0.12          1.397        0.163
  R0019942             JUNCTION        0.21          1.308        0.342
  R0019840             JUNCTION        0.12          1.551        1.019
  R0043702             JUNCTION        0.13          1.734        1.176
  R0019723             JUNCTION        0.10          1.320        0.000
  R0019724             JUNCTION        0.10          1.410        0.040
  R0021433             JUNCTION        0.19          1.850        0.000
  R0021435             JUNCTION        0.23          1.810        0.000
  
  
  *********************
  Node Flooding Summary
  *********************
  
  Flooding refers to all water that overflows a node, whether it ponds or not.
  --------------------------------------------------------------------------
                                                             Total   Maximum
                                 Maximum   Time of Max       Flood    Ponded
                        Hours       Rate    Occurrence      Volume     Depth
  Node                 Flooded       CMS   days hr:min    10^6 ltr    Meters
  --------------------------------------------------------------------------
  R0019466                0.02     0.047      0  03:25       0.002     0.000
  R0019468                0.02     0.024      0  03:25       0.001     0.000
  R0019831                0.06     0.040      0  03:25       0.004     0.000
  R0019825                0.10     0.175      0  03:25       0.038     0.000
  R0019254                0.01     0.007      0  03:25       0.000     0.000
  R0013935                0.06     0.071      0  03:25       0.008     0.000
  R0039621                0.05     0.233      0  03:25       0.023     0.000
  R0019838                0.01     0.026      0  03:24       0.000     0.000
  R0021442                0.10     0.132      0  03:25       0.026     0.000
  R0019252                0.08     0.149      0  03:25       0.024     0.000
  R0019723                0.01     0.016      0  03:25       0.000     0.000
  R0021433                0.09     0.082      0  03:25       0.015     0.000
  R0021435                0.11     0.100      0  03:25       0.026     0.000
  
  
  ***********************
  Outfall Loading Summary
  ***********************
  
  -----------------------------------------------------------
                         Flow       Avg       Max       Total
                         Freq      Flow      Flow      Volume
  Outfall Node           Pcnt       CMS       CMS    10^6 ltr
  -----------------------------------------------------------
  R0019769               8.32     0.139     2.519       3.124
  -----------------------------------------------------------
  System                 8.32     0.139     2.519       3.124
  
  
  ********************
  Link Flow Summary
  ********************
  
  -----------------------------------------------------------------------------
                                 Maximum  Time of Max   Maximum    Max/    Max/
                                  |Flow|   Occurrence   |Veloc|    Full    Full
  Link                 Type          CMS  days hr:min     m/sec    Flow   Depth
  -----------------------------------------------------------------------------
  H0014431             CONDUIT     0.094     0  03:26      1.33    1.74    1.00
  H0014433             CONDUIT     0.100     0  03:25      1.42    1.28    1.00
  H0014352             CONDUIT     2.521     0  03:26      3.96    1.03    1.00
  H0014373             CONDUIT     2.526     0  03:26      4.38    1.17    0.90
  H0017981             CONDUIT     0.164     0  03:22      2.32    4.63    1.00
  H0017755             CONDUIT     0.241     0  03:25      1.92    1.95    1.00
  H0017791             CONDUIT     0.472     0  03:25      0.74    0.69    1.00
  H0017357             CONDUIT     0.216     0  03:24      3.06    3.45    1.00
  H0018216             CONDUIT     0.162     0  03:22      2.29    2.95    1.00
  H0016792             CONDUIT     1.670     0  03:26      2.62    0.96    1.00
  H0019507             CONDUIT     0.087     0  03:22      1.24    1.21    1.00
  H0019998             CONDUIT     1.986     0  03:26      3.48    0.79    1.00
  H0019576             CONDUIT     1.778     0  03:26      2.79    1.19    1.00
  H0020087             CONDUIT     0.233     0  03:25      1.19    1.02    1.00
  H0020211             CONDUIT     1.662     0  03:25      2.61    4.14    1.00
  H0018982             CONDUIT     0.610     0  03:25      0.96    0.98    1.00
  H0018753             CONDUIT     0.082     0  03:24      1.17    1.17    1.00
  H0018845             CONDUIT     0.000     0  00:00      0.00    0.00    0.00
  H0018863             CONDUIT     0.125     0  03:23      1.77    2.93    1.00
  H0019156             CONDUIT     0.000     0  00:00      0.00    0.00    0.00
  H0018929             CONDUIT     0.937     0  03:25      1.47    0.81    1.00
  H0018440             CONDUIT     0.158     0  03:21      2.23    2.82    1.00
  H0018456             CONDUIT     0.310     0  03:24      2.46    1.88    1.00
  H0018968             CONDUIT     2.512     0  03:26      5.17    0.96    0.72
  H0022036             CONDUIT     0.442     0  03:25      0.69    0.34    1.00
  H0021806             CONDUIT     0.222     0  03:24      1.77    1.97    1.00
  H0022111             CONDUIT     0.181     0  03:23      0.92    1.29    1.00
  H0021440             CONDUIT     1.543     0  03:25      2.51    1.00    1.00
  H0021704             CONDUIT     1.057     0  03:25      1.70    2.01    1.00
  H0020521             CONDUIT     0.083     0  03:22      1.17    1.68    1.00
  H0020755             CONDUIT     0.162     0  03:25      1.29    1.79    1.00
  H0020530             CONDUIT     2.531     0  03:26      3.98    2.16    1.00
  H0020618             CONDUIT     1.917     0  03:26      3.35    1.19    1.00
  H0021163             CONDUIT     0.125     0  03:21      1.77    2.09    1.00
  H0020497             CONDUIT     0.078     0  03:23      1.11    0.17    1.00
  H0024325             CONDUIT     0.383     0  03:23      1.95    1.14    1.00
  H0023585             CONDUIT     0.703     0  03:24      3.58    1.62    1.00
  H0024098             CONDUIT     0.220     0  03:23      3.11    2.56    1.00
  H0024235             CONDUIT     0.393     0  03:23      2.00    1.61    1.00
  H0024282             CONDUIT     0.000     0  00:00      0.00    0.00    0.38
  H0024308             CONDUIT     2.519     0  03:26      5.87    0.74    0.64
  H0024498             CONDUIT     0.170     0  03:25      2.40    2.63    1.00
  H0026990             CONDUIT     0.122     0  03:24      0.97    0.93    1.00
  H0041650             CONDUIT     0.807     0  03:25      1.27    0.94    1.00
  H0041011             CONDUIT     0.115     0  03:22      1.63    1.14    1.00
  H0045103             CONDUIT     0.597     0  03:25      1.01    0.75    1.00
  H0045104             CONDUIT     2.527     0  03:26      4.85    0.90    0.76
  H0045105             CONDUIT     0.037     0  03:25      0.52    0.64    1.00
  H0045106             CONDUIT     0.499     0  03:23      2.54    0.67    1.00
  H0045107             CONDUIT     0.072     0  03:27      1.01    1.18    1.00
  H0045108             CONDUIT     0.088     0  03:28      1.25    1.58    1.00
  
  
  ***************************
  Flow Classification Summary
  ***************************
  
  -------------------------------------------------------------------------------------
                      Adjusted    ---------- Fraction of Time in Flow Class ---------- 
                       /Actual         Up    Down  Sub   Sup   Up    Down  Norm  Inlet 
  Conduit               Length    Dry  Dry   Dry   Crit  Crit  Crit  Crit  Ltd   Ctrl  
  -------------------------------------------------------------------------------------
  H0014431                1.00   0.03  0.89  0.00  0.08  0.00  0.00  0.00  0.96  0.00
  H0014433                1.00   0.03  0.00  0.00  0.97  0.00  0.00  0.00  0.97  0.00
  H0014352                1.00   0.03  0.00  0.00  0.91  0.06  0.00  0.00  0.97  0.00
  H0014373                1.00   0.03  0.00  0.00  0.89  0.08  0.00  0.00  0.88  0.00
  H0017981                1.00   0.03  0.00  0.00  0.00  0.00  0.00  0.97  0.00  0.00
  H0017755                1.00   0.03  0.00  0.00  0.00  0.00  0.00  0.97  0.00  0.00
  H0017791                1.00   0.03  0.00  0.00  0.97  0.00  0.00  0.00  0.96  0.00
  H0017357                1.00   0.03  0.97  0.00  0.00  0.00  0.00  0.00  0.95  0.00
  H0018216                1.00   0.03  0.89  0.00  0.08  0.00  0.00  0.00  0.96  0.00
  H0016792                1.00   0.03  0.88  0.00  0.09  0.00  0.00  0.00  0.96  0.00
  H0019507                1.00   0.03  0.00  0.00  0.97  0.00  0.00  0.00  0.97  0.00
  H0019998                1.00   0.03  0.00  0.00  0.89  0.08  0.00  0.00  0.09  0.00
  H0019576                1.00   0.03  0.00  0.00  0.92  0.05  0.00  0.00  0.08  0.00
  H0020087                1.00   0.03  0.95  0.00  0.02  0.00  0.00  0.00  0.95  0.00
  H0020211                1.00   0.03  0.00  0.00  0.97  0.00  0.00  0.00  0.88  0.00
  H0018982                1.00   0.03  0.00  0.00  0.97  0.00  0.00  0.00  0.90  0.00
  H0018753                1.00   0.03  0.00  0.00  0.97  0.00  0.00  0.00  0.97  0.00
  H0018845                1.00   1.00  0.00  0.00  0.00  0.00  0.00  0.00  0.00  0.00
  H0018863                1.00   0.03  0.00  0.00  0.97  0.00  0.00  0.00  0.96  0.00
  H0019156                1.00   1.00  0.00  0.00  0.00  0.00  0.00  0.00  0.00  0.00
  H0018929                1.00   0.03  0.88  0.00  0.09  0.00  0.00  0.00  0.96  0.00
  H0018440                1.00   0.03  0.00  0.00  0.97  0.00  0.00  0.00  0.96  0.00
  H0018456                1.00   0.03  0.00  0.00  0.97  0.00  0.00  0.00  0.96  0.00
  H0018968                1.00   0.03  0.00  0.00  0.89  0.08  0.00  0.00  0.90  0.00
  H0022036                1.00   0.03  0.00  0.00  0.05  0.00  0.00  0.92  0.03  0.00
  H0021806                1.00   0.03  0.89  0.00  0.08  0.00  0.00  0.00  0.92  0.00
  H0022111                1.00   0.03  0.00  0.00  0.97  0.00  0.00  0.00  0.00  0.00
  H0021440                1.00   0.03  0.00  0.00  0.91  0.06  0.00  0.00  0.02  0.00
  H0021704                1.00   0.03  0.00  0.00  0.00  0.00  0.00  0.97  0.00  0.00
  H0020521                1.00   0.03  0.00  0.00  0.97  0.00  0.00  0.00  0.97  0.00
  H0020755                1.00   0.03  0.89  0.00  0.08  0.00  0.00  0.00  0.96  0.00
  H0020530                1.00   0.03  0.00  0.00  0.91  0.06  0.00  0.00  0.02  0.00
  H0020618                1.00   0.03  0.00  0.00  0.90  0.07  0.00  0.00  0.91  0.00
  H0021163                1.00   0.03  0.00  0.00  0.95  0.02  0.00  0.00  0.90  0.00
  H0020497                1.20   0.03  0.97  0.00  0.00  0.00  0.00  0.00  0.95  0.00
  H0024325                1.00   0.03  0.00  0.00  0.91  0.06  0.00  0.00  0.90  0.00
  H0023585                1.00   0.03  0.00  0.00  0.00  0.00  0.00  0.97  0.00  0.00
  H0024098                1.00   0.03  0.89  0.00  0.08  0.00  0.00  0.00  0.96  0.00
  H0024235                1.00   0.03  0.00  0.00  0.00  0.00  0.00  0.97  0.00  0.00
  H0024282                1.00   1.00  0.00  0.00  0.00  0.00  0.00  0.00  0.00  0.00
  H0024308                1.00   0.03  0.00  0.00  0.88  0.09  0.00  0.00  0.02  0.00
  H0024498                1.00   0.03  0.00  0.00  0.00  0.00  0.00  0.97  0.00  0.00
  H0026990                1.00   0.03  0.00  0.00  0.97  0.00  0.00  0.00  0.97  0.00
  H0041650                1.00   0.91  0.01  0.00  0.08  0.00  0.00  0.00  0.95  0.00
  H0041011                1.00   0.03  0.00  0.00  0.97  0.00  0.00  0.00  0.96  0.00
  H0045103                1.00   0.03  0.00  0.00  0.97  0.00  0.00  0.00  0.91  0.00
  H0045104                1.00   0.03  0.00  0.00  0.89  0.08  0.00  0.00  0.09  0.00
  H0045105                1.00   0.03  0.00  0.00  0.97  0.00  0.00  0.00  0.97  0.00
  H0045106                1.00   0.03  0.89  0.00  0.02  0.06  0.00  0.00  0.97  0.00
  H0045107                1.00   0.03  0.00  0.00  0.97  0.00  0.00  0.00  0.97  0.00
  H0045108                1.00   0.03  0.00  0.00  0.97  0.00  0.00  0.00  0.97  0.00
  
  
  *************************
  Conduit Surcharge Summary
  *************************
  
  ----------------------------------------------------------------------------
                                                           Hours        Hours 
                         --------- Hours Full --------   Above Full   Capacity
  Conduit                Both Ends  Upstream  Dnstream   Normal Flow   Limited
  ----------------------------------------------------------------------------
  H0014431                    0.23      0.23      0.23      0.25         0.22
  H0014433                    0.16      0.16      0.20      0.07         0.07
  H0014352                    0.11      0.11      0.14      0.04         0.03
  H0014373                    0.01      0.02      0.01      0.09         0.01
  H0017981                    0.13      0.16      0.13      0.30         0.15
  H0017755                    0.14      0.15      0.14      0.18         0.14
  H0017791                    0.03      0.03      0.04      0.01         0.01
  H0017357                    0.11      0.11      0.17      0.11         0.01
  H0018216                    0.16      0.18      0.16      0.20         0.17
  H0016792                    0.08      0.08      0.11      0.01         0.01
  H0019507                    0.17      0.17      0.24      0.03         0.02
  H0019998                    0.06      0.06      0.11      0.01         0.01
  H0019576                    0.06      0.06      0.06      0.08         0.05
  H0020087                    0.08      0.08      0.09      0.01         0.01
  H0020211                    0.06      0.11      0.06      0.24         0.08
  H0018982                    0.04      0.04      0.05      0.01         0.01
  H0018753                    0.17      0.17      0.23      0.01         0.01
  H0018863                    0.24      0.24      0.25      0.15         0.15
  H0018929                    0.05      0.05      0.06      0.01         0.01
  H0018440                    0.20      0.26      0.20      0.31         0.23
  H0018456                    0.13      0.13      0.13      0.15         0.13
  H0022036                    0.02      0.02      0.03      0.01         0.01
  H0021806                    0.15      0.17      0.15      0.18         0.16
  H0022111                    0.09      0.09      0.09      0.04         0.04
  H0021440                    0.06      0.06      0.08      0.01         0.01
  H0021704                    0.05      0.06      0.05      0.15         0.04
  H0020521                    0.15      0.15      0.18      0.08         0.07
  H0020755                    0.12      0.12      0.13      0.08         0.07
  H0020530                    0.02      0.14      0.02      0.18         0.13
  H0020618                    0.06      0.06      0.06      0.09         0.05
  H0021163                    0.20      0.20      0.21      0.19         0.17
  H0020497                    0.01      0.01     72.60      0.01         0.01
  H0024325                    0.09      0.09      0.12      0.01         0.01
  H0023585                    0.12      0.13      0.12      0.14         0.11
  H0024098                    0.25      0.25      0.31      0.20         0.20
  H0024235                    0.10      0.11      0.10      0.10         0.09
  H0024498                    0.12      0.23      0.12      0.28         0.19
  H0026990                    0.10      0.10      0.12      0.01         0.01
  H0041650                    0.05      0.05      0.05      0.01         0.01
  H0041011                    0.21      0.21      0.25      0.04         0.03
  H0045103                    0.05      0.05      0.05      0.01         0.01
  H0045105                    0.10      0.10      0.11      0.01         0.01
  H0045106                    0.12      0.12      0.13      0.01         0.01
  H0045107                    0.19      0.19      0.23      0.10         0.10
  H0045108                    0.23      0.23      0.26      0.18         0.18
  

  Analysis begun on:  Fri Mar 22 15:56:53 2024
  Analysis ended on:  Fri Mar 22 15:57:02 2024
  Total elapsed time: 00:00:09