
  EPA STORM WATER MANAGEMENT MODEL - VERSION 5.2 (Build 5.2.4)
  PYSWMM TOOLKIT API - VERSION v1.0 (2023-11-27)
  ------------------------------------------------------------

  Gievenbeck_e2_T20D60 
  
  ****************
  Analysis Options
  ****************
  Flow Units ............... CMS
  Process Models:
    Rainfall/Runoff ........ YES
    RDII ................... NO
    Snowmelt ............... NO
    Groundwater ............ NO
    Flow Routing ........... YES
    Ponding Allowed ........ NO
    Water Quality .......... NO
  Infiltration Method ...... HORTON
  Flow Routing Method ...... DYNWAVE
  Surcharge Method ......... SLOT
  Starting Date ............ 01/01/2024 00:00:00
  Ending Date .............. 01/04/2024 04:00:00
  Antecedent Dry Days ...... 14.0
  Report Time Step ......... 00:01:00
  Wet Time Step ............ 00:01:00
  Dry Time Step ............ 00:01:00
  Routing Time Step ........ 1.00 sec
  Variable Time Step ....... YES
  Maximum Trials ........... 8
  Number of Threads ........ 1
  Head Tolerance ........... 0.001500 m
  
  
  **************************        Volume         Depth
  Runoff Quantity Continuity     hectare-m            mm
  **************************     ---------       -------
  Total Precipitation ......         0.330        32.610
  Evaporation Loss .........         0.010         0.963
  Infiltration Loss ........         0.152        15.006
  Surface Runoff ...........         0.169        16.701
  Final Storage ............         0.000         0.000
  Continuity Error (%) .....        -0.185
  
  
  **************************        Volume        Volume
  Flow Routing Continuity        hectare-m      10^6 ltr
  **************************     ---------     ---------
  Dry Weather Inflow .......         0.000         0.000
  Wet Weather Inflow .......         0.169         1.691
  Groundwater Inflow .......         0.000         0.000
  RDII Inflow ..............         0.000         0.000
  External Inflow ..........         0.000         0.000
  External Outflow .........         0.166         1.664
  Flooding Loss ............         0.003         0.026
  Evaporation Loss .........         0.000         0.000
  Exfiltration Loss ........         0.000         0.000
  Initial Stored Volume ....         0.000         0.000
  Final Stored Volume ......         0.000         0.000
  Continuity Error (%) .....         0.028
  
  
  *************************
  Highest Continuity Errors
  *************************
  Node R0019373 (1.69%)
  
  
  ***************************
  Time-Step Critical Elements
  ***************************
  None
  
  
  ********************************
  Highest Flow Instability Indexes
  ********************************
  All links are stable.
  
  
  *********************************
  Most Frequent Nonconverging Nodes
  *********************************
  Convergence obtained at all time steps.
  
  
  *************************
  Routing Time Step Summary
  *************************
  Minimum Time Step           :     0.07 sec
  Average Time Step           :     1.00 sec
  Maximum Time Step           :     1.00 sec
  % of Time in Steady State   :     0.00
  Average Iterations per Step :     2.00
  % of Steps Not Converging   :     0.00
  Time Step Frequencies       :
      1.000 -  0.871 sec      :    99.99 %
      0.871 -  0.758 sec      :     0.00 %
      0.758 -  0.660 sec      :     0.00 %
      0.660 -  0.574 sec      :     0.00 %
      0.574 -  0.500 sec      :     0.00 %
  
  
  ***************************
  Subcatchment Runoff Summary
  ***************************
  
  ------------------------------------------------------------------------------------------------------------------------------
                            Total      Total      Total      Total     Imperv       Perv      Total       Total     Peak  Runoff
                           Precip      Runon       Evap      Infil     Runoff     Runoff     Runoff      Runoff   Runoff   Coeff
  Subcatchment                 mm         mm         mm         mm         mm         mm         mm    10^6 ltr      CMS
  ------------------------------------------------------------------------------------------------------------------------------
  EZG_368                   32.61       0.00       0.96      15.12      15.40       3.50      16.59        0.07     0.11   0.509
  EZG_392                   32.61       0.00       0.95      15.02      15.40       3.61      16.70        0.05     0.09   0.512
  EZG_352                   32.61       0.00       0.96      15.28      15.39       3.34      16.42        0.10     0.15   0.503
  EZG_372                   32.61       0.00       0.94      14.67      15.42       3.97      17.08        0.02     0.04   0.524
  EZG_416                   32.61       0.00       0.95      14.97      15.40       3.65      16.75        0.05     0.08   0.514
  EZG_388                   32.61       0.00       0.96      15.16      15.39       3.46      16.54        0.08     0.12   0.507
  EZG_394                   32.61       0.00       0.95      14.96      15.41       3.67      16.77        0.05     0.08   0.514
  EZG_400                   32.61       0.00       0.95      14.92      15.41       3.71      16.80        0.04     0.08   0.515
  EZG_390                   32.61       0.00       0.95      15.01      15.40       3.62      16.71        0.05     0.09   0.512
  EZG_350                   32.61       0.00       0.96      15.17      15.39       3.46      16.54        0.08     0.12   0.507
  EZG_370                   32.61       0.00       0.96      15.06      15.40       3.56      16.65        0.06     0.10   0.511
  EZG_398                   32.61       0.00       0.94      14.56      15.43       4.09      17.20        0.02     0.03   0.527
  EZG_382                   32.61       0.00       0.94      14.52      15.43       4.13      17.25        0.02     0.03   0.529
  EZG_374                   32.61       0.00       1.15      12.17      18.47       3.65      19.35        0.07     0.12   0.593
  EZG_412                   32.61       0.00       0.93      14.25      15.45       4.42      17.55        0.01     0.01   0.538
  EZG_344                   32.61       0.00       0.95      14.92      15.41       3.71      16.81        0.04     0.07   0.516
  EZG_376                   32.61       0.00       0.95      14.82      15.41       3.81      16.91        0.03     0.06   0.519
  EZG_356                   32.61       0.00       0.97      15.32      15.38       3.30      16.38        0.10     0.17   0.502
  EZG_386                   32.61       0.00       0.97      15.42      15.38       3.20      16.27        0.13     0.20   0.499
  EZG_380                   32.61       0.00       0.96      15.10      15.40       3.53      16.62        0.06     0.11   0.510
  EZG_378                   32.61       0.00       0.95      15.04      15.40       3.58      16.67        0.06     0.10   0.511
  EZG_414                   32.61       0.00       0.94      14.52      15.43       4.13      17.25        0.02     0.03   0.529
  EZG_402                   32.61       0.00       0.95      15.02      15.40       3.61      16.70        0.05     0.09   0.512
  EZG_358                   32.61       0.00       0.97      15.31      15.38       3.31      16.38        0.10     0.16   0.502
  EZG_364                   32.61       0.00       0.97      15.31      15.38       3.31      16.38        0.10     0.16   0.502
  EZG_410                   32.61       0.00       0.95      14.84      15.41       3.79      16.89        0.04     0.06   0.518
  EZG_366                   32.61       0.00       0.95      14.89      15.41       3.74      16.83        0.04     0.07   0.516
  EZG_18259                 32.61       0.00       0.95      14.89      15.41       3.74      16.84        0.04     0.07   0.516
  EZG_18258                 32.61       0.00       0.93      14.39      15.44       4.26      17.39        0.01     0.02   0.533
  EZG_346                   32.61       0.00       0.94      15.36      15.09       3.55      16.38        0.06     0.10   0.502
  EZG_348                   32.61       0.00       0.93      15.15      15.10       3.76      16.60        0.04     0.07   0.509
  
  
  ******************
  Node Depth Summary
  ******************
  
  ---------------------------------------------------------------------------------
                                 Average  Maximum  Maximum  Time of Max    Reported
                                   Depth    Depth      HGL   Occurrence   Max Depth
  Node                 Type       Meters   Meters   Meters  days hr:min      Meters
  ---------------------------------------------------------------------------------
  R0019466             JUNCTION     0.00     1.42    70.87     0  02:25        1.39
  R0019468             JUNCTION     0.00     1.30    70.61     0  02:25        1.29
  R0019831             JUNCTION     0.00     1.58    70.75     0  02:25        1.58
  R0019825             JUNCTION     0.00     1.50    70.34     0  02:23        1.50
  R0019843             JUNCTION     0.00     1.15    68.78     0  02:26        1.08
  R0019368             JUNCTION     0.01     1.37    68.16     0  02:25        1.31
  R0019369             JUNCTION     0.00     0.72    67.31     0  02:26        0.69
  R0019370             JUNCTION     0.00     0.59    66.49     0  02:26        0.57
  R0019345             JUNCTION     0.00     1.06    70.96     0  02:25        0.96
  R0019346             JUNCTION     0.00     0.83    70.63     0  02:25        0.75
  R0043600             JUNCTION     0.00     0.58    70.25     0  02:25        0.57
  R0019203             JUNCTION     0.00     0.59    70.13     0  02:25        0.58
  R0043594             JUNCTION     0.00     0.45    70.18     0  02:25        0.45
  R0021458             JUNCTION     0.00     0.51    70.16     0  02:25        0.51
  R0019202             JUNCTION     0.00     0.56    70.14     0  02:25        0.55
  R0019373             JUNCTION     0.00     1.14    70.81     0  02:25        1.10
  R0019254             JUNCTION     0.00     1.83    71.87     0  02:25        1.82
  R0019716             JUNCTION     0.00     0.67    69.68     0  02:25        0.67
  R0019946             JUNCTION     0.01     0.93    69.55     0  02:25        0.93
  R0013935             JUNCTION     0.00     1.44    70.27     0  02:25        1.42
  R0019939             JUNCTION     0.00     1.44    70.01     0  02:25        1.42
  R0019944             JUNCTION     0.00     0.59    68.87     0  02:25        0.58
  R0043703             JUNCTION     0.00     0.69    69.29     0  02:25        0.69
  R0019945             JUNCTION     0.00     0.71    69.11     0  02:26        0.71
  R0039621             JUNCTION     0.00     0.37    69.94     0  02:25        0.37
  R0019838             JUNCTION     0.00     0.46    69.92     0  02:25        0.45
  R0039606             JUNCTION     0.00     0.55    70.14     0  02:25        0.54
  R0019204             JUNCTION     0.00     0.00    69.91     0  00:00        0.00
  R0019205             JUNCTION     0.00     0.00    69.62     0  00:00        0.00
  R0019849             JUNCTION     0.00     1.21    69.73     0  02:25        1.18
  R0019371             JUNCTION     0.00     0.00    70.41     0  00:00        0.00
  R0019718             JUNCTION     0.00     0.68    70.10     0  02:25        0.67
  R0021442             JUNCTION     0.01     2.05    72.10     0  02:23        2.05
  R0019247             JUNCTION     0.00     1.09    70.97     0  02:25        1.08
  R0019719             JUNCTION     0.00     0.64    70.32     0  02:25        0.59
  R0019767             JUNCTION     0.00     0.63    65.36     0  02:26        0.61
  R0019768             JUNCTION     0.00     0.52    64.29     0  02:26        0.51
  R0021453             JUNCTION     0.00     0.24    70.19     0  02:25        0.22
  R0019839             JUNCTION     0.00     0.51    69.90     0  02:25        0.43
  R0019717             JUNCTION     0.00     0.62    69.96     0  02:25        0.61
  R0019252             JUNCTION     0.00     1.94    72.13     0  02:24        1.94
  R0019721             JUNCTION     0.00     0.89    70.76     0  02:25        0.77
  R0019942             JUNCTION     0.00     1.20    69.85     0  02:25        1.18
  R0019206             JUNCTION     0.00     0.00    69.07     0  00:00        0.00
  R0019840             JUNCTION     0.00     0.76    69.73     0  02:24        0.67
  R0043702             JUNCTION     0.00     0.97    69.67     0  02:24        0.89
  R0019723             JUNCTION     0.00     0.74    70.82     0  02:25        0.64
  R0019724             JUNCTION     0.00     0.65    70.81     0  02:25        0.64
  R0021433             JUNCTION     0.00     2.15    72.54     0  02:23        2.15
  R0021435             JUNCTION     0.00     2.11    72.29     0  02:23        2.11
  R0019769             OUTFALL      0.00     0.52    63.90     0  02:26        0.51
  
  
  *******************
  Node Inflow Summary
  *******************
  
  -------------------------------------------------------------------------------------------------
                                  Maximum  Maximum                  Lateral       Total        Flow
                                  Lateral    Total  Time of Max      Inflow      Inflow     Balance
                                   Inflow   Inflow   Occurrence      Volume      Volume       Error
  Node                 Type           CMS      CMS  days hr:min    10^6 ltr    10^6 ltr     Percent
  -------------------------------------------------------------------------------------------------
  R0019466             JUNCTION     0.113    0.113     0  02:25      0.0685       0.103       0.083
  R0019468             JUNCTION     0.070    0.148     0  02:24      0.0403       0.138      -0.035
  R0019831             JUNCTION     0.092    0.092     0  02:25      0.0541      0.0541       0.111
  R0019825             JUNCTION     0.092    0.182     0  02:25      0.0543       0.108       0.195
  R0019843             JUNCTION     0.000    2.133     0  02:26           0        1.66      -0.011
  R0019368             JUNCTION     0.000    2.124     0  02:26           0        1.66      -0.026
  R0019369             JUNCTION     0.000    2.135     0  02:26           0        1.66      -0.026
  R0019370             JUNCTION     0.000    2.117     0  02:26           0        1.66       0.004
  R0019345             JUNCTION     0.000    0.156     0  02:24           0       0.105       0.054
  R0019346             JUNCTION     0.015    0.268     0  02:25       0.007       0.178       0.008
  R0043600             JUNCTION     0.000    0.211     0  02:25           0       0.186      -0.092
  R0019203             JUNCTION     0.029    0.639     0  02:25      0.0152       0.471      -0.012
  R0043594             JUNCTION     0.155    0.210     0  02:24       0.097        0.14      -0.045
  R0021458             JUNCTION     0.124    0.284     0  02:25      0.0759       0.216      -0.002
  R0019202             JUNCTION     0.043    0.412     0  02:25      0.0231       0.268      -0.444
  R0019373             JUNCTION     0.100    0.132     0  02:25      0.0597      0.0649       1.716
  R0019254             JUNCTION     0.084    0.162     0  02:24      0.0488       0.105       0.046
  R0019716             JUNCTION     0.124    1.307     0  02:25      0.0754       0.955      -0.019
  R0019946             JUNCTION     0.000    1.294     0  02:25           0       0.955       0.010
  R0013935             JUNCTION     0.080    0.080     0  02:25      0.0465      0.0465       0.099
  R0019939             JUNCTION     0.033    0.108     0  02:25       0.017      0.0635      -0.110
  R0019944             JUNCTION     0.075    1.593     0  02:26      0.0433        1.21       0.021
  R0043703             JUNCTION     0.090    1.355     0  02:25      0.0529        1.01       0.009
  R0019945             JUNCTION     0.000    1.550     0  02:26           0        1.17      -0.009
  R0039621             JUNCTION     0.000    0.011     0  02:25           0     0.00242       0.301
  R0019838             JUNCTION     0.166    0.166     0  02:25       0.105       0.107      -0.055
  R0039606             JUNCTION     0.000    0.272     0  02:26           0       0.216       0.059
  R0019204             JUNCTION     0.000    0.000     0  00:00           0           0       0.000 ltr
  R0019205             JUNCTION     0.000    0.000     0  00:00           0           0       0.000 ltr
  R0019849             JUNCTION     0.000    0.206     0  02:25           0       0.164       0.010
  R0019371             JUNCTION     0.000    0.000     0  00:00           0           0       0.000 ltr
  R0019718             JUNCTION     0.108    0.722     0  02:25      0.0647       0.536      -0.941
  R0021442             JUNCTION     0.122    0.194     0  02:25      0.0733       0.157       0.033
  R0019247             JUNCTION     0.060    0.213     0  02:25      0.0337       0.187       0.111
  R0019719             JUNCTION     0.063    0.323     0  02:25      0.0355       0.213       0.636
  R0019767             JUNCTION     0.000    2.133     0  02:26           0        1.66      -0.007
  R0019768             JUNCTION     0.000    2.134     0  02:26           0        1.66       0.010
  R0021453             JUNCTION     0.074    0.074     0  02:25      0.0425      0.0425      -0.041
  R0019839             JUNCTION     0.164    0.315     0  02:24       0.104       0.209      -0.014
  R0019717             JUNCTION     0.201    1.206     0  02:25        0.13       0.882       0.355
  R0019252             JUNCTION     0.096    0.096     0  02:25      0.0571      0.0571      -0.057
  R0019721             JUNCTION     0.029    0.113     0  02:25       0.015      0.0658       0.094
  R0019942             JUNCTION     0.000    0.123     0  02:23           0      0.0997      -0.311
  R0019206             JUNCTION     0.000    0.000     0  00:00           0           0       0.000 ltr
  R0019840             JUNCTION     0.000    0.430     0  02:24           0       0.347       0.008
  R0043702             JUNCTION     0.165    0.578     0  02:24       0.104       0.451       0.482
  R0019723             JUNCTION     0.070    0.093     0  02:25        0.04      0.0507      -0.244
  R0019724             JUNCTION     0.021    0.023     0  02:24      0.0106      0.0107      -0.290
  R0021433             JUNCTION     0.100    0.100     0  02:25      0.0596      0.0596      -0.131
  R0021435             JUNCTION     0.065    0.137     0  02:25      0.0369      0.0937      -0.102
  R0019769             OUTFALL      0.000    2.146     0  02:26           0        1.66       0.000
  
  
  **********************
  Node Surcharge Summary
  **********************
  
  Surcharging occurs when water rises above the top of the highest conduit.
  ---------------------------------------------------------------------
                                               Max. Height   Min. Depth
                                   Hours       Above Crown    Below Rim
  Node                 Type      Surcharged         Meters       Meters
  ---------------------------------------------------------------------
  R0019466             JUNCTION        0.18          1.117        1.393
  R0019468             JUNCTION        0.17          1.000        1.430
  R0019831             JUNCTION        0.11          1.279        0.081
  R0019825             JUNCTION        0.15          1.200        0.000
  R0019843             JUNCTION        0.03          0.250        2.370
  R0019368             JUNCTION        0.06          0.468        0.582
  R0019345             JUNCTION        0.11          0.760        0.990
  R0019346             JUNCTION        0.07          0.434        1.306
  R0043600             JUNCTION        0.09          0.184        2.396
  R0019373             JUNCTION        0.11          0.839        1.661
  R0019254             JUNCTION        0.13          1.532        0.298
  R0019946             JUNCTION        0.02          0.031        1.489
  R0013935             JUNCTION        0.12          1.144        0.176
  R0019939             JUNCTION        0.18          1.140        0.480
  R0019849             JUNCTION        0.19          0.913        1.017
  R0021442             JUNCTION        0.20          1.750        0.000
  R0019247             JUNCTION        0.12          0.685        1.175
  R0019719             JUNCTION        0.03          0.137        1.663
  R0019839             JUNCTION        0.01          0.015        1.635
  R0019252             JUNCTION        0.11          1.640        0.000
  R0019721             JUNCTION        0.06          0.486        1.074
  R0019942             JUNCTION        0.16          0.903        0.747
  R0019840             JUNCTION        0.04          0.260        2.310
  R0043702             JUNCTION        0.07          0.467        2.443
  R0019723             JUNCTION        0.03          0.337        0.983
  R0019724             JUNCTION        0.03          0.351        1.099
  R0021433             JUNCTION        0.14          1.850        0.000
  R0021435             JUNCTION        0.17          1.810        0.000
  
  
  *********************
  Node Flooding Summary
  *********************
  
  Flooding refers to all water that overflows a node, whether it ponds or not.
  --------------------------------------------------------------------------
                                                             Total   Maximum
                                 Maximum   Time of Max       Flood    Ponded
                        Hours       Rate    Occurrence      Volume     Depth
  Node                 Flooded       CMS   days hr:min    10^6 ltr    Meters
  --------------------------------------------------------------------------
  R0019825                0.05     0.078      0  02:25       0.008     0.000
  R0021442                0.05     0.041      0  02:25       0.004     0.000
  R0019252                0.02     0.022      0  02:25       0.001     0.000
  R0021433                0.05     0.028      0  02:25       0.003     0.000
  R0021435                0.06     0.064      0  02:25       0.010     0.000
  
  
  ***********************
  Outfall Loading Summary
  ***********************
  
  -----------------------------------------------------------
                         Flow       Avg       Max       Total
                         Freq      Flow      Flow      Volume
  Outfall Node           Pcnt       CMS       CMS    10^6 ltr
  -----------------------------------------------------------
  R0019769               4.66     0.131     2.146       1.664
  -----------------------------------------------------------
  System                 4.66     0.131     2.146       1.664
  
  
  ********************
  Link Flow Summary
  ********************
  
  -----------------------------------------------------------------------------
                                 Maximum  Time of Max   Maximum    Max/    Max/
                                  |Flow|   Occurrence   |Veloc|    Full    Full
  Link                 Type          CMS  days hr:min     m/sec    Flow   Depth
  -----------------------------------------------------------------------------
  H0014431             CONDUIT     0.081     0  02:24      1.14    1.49    1.00
  H0014433             CONDUIT     0.091     0  02:25      1.28    1.16    1.00
  H0014352             CONDUIT     2.124     0  02:26      3.34    0.87    1.00
  H0014373             CONDUIT     2.117     0  02:26      4.30    0.98    0.73
  H0017981             CONDUIT     0.149     0  02:24      2.11    4.23    1.00
  H0017755             CONDUIT     0.211     0  02:25      1.68    1.71    1.00
  H0017791             CONDUIT     0.172     0  02:26      0.69    0.25    0.53
  H0017357             CONDUIT     0.130     0  02:25      1.84    2.08    1.00
  H0018216             CONDUIT     0.156     0  02:24      2.21    2.84    1.00
  H0016792             CONDUIT     1.294     0  02:25      2.17    0.74    0.89
  H0019507             CONDUIT     0.076     0  02:25      1.08    1.06    1.00
  H0019998             CONDUIT     1.654     0  02:26      3.43    0.66    0.94
  H0019576             CONDUIT     1.358     0  02:26      2.56    0.91    0.78
  H0020087             CONDUIT     0.021     0  02:26      0.18    0.09    0.82
  H0020211             CONDUIT     1.296     0  02:26      2.15    3.23    0.90
  H0018982             CONDUIT     0.272     0  02:26      0.83    0.44    0.59
  H0018753             CONDUIT     0.039     0  02:21      0.64    0.56    1.00
  H0018845             CONDUIT     0.000     0  00:00      0.00    0.00    0.00
  H0018863             CONDUIT     0.106     0  02:25      1.49    2.48    1.00
  H0019156             CONDUIT     0.000     0  00:00      0.00    0.00    0.00
  H0018929             CONDUIT     0.638     0  02:25      1.38    0.55    0.70
  H0018440             CONDUIT     0.162     0  02:23      2.28    2.89    1.00
  H0018456             CONDUIT     0.270     0  02:25      2.15    1.64    1.00
  H0018968             CONDUIT     2.134     0  02:26      5.02    0.82    0.64
  H0022036             CONDUIT     0.066     0  02:24      0.52    0.05    0.36
  H0021806             CONDUIT     0.211     0  02:25      1.68    1.87    1.00
  H0022111             CONDUIT     0.152     0  02:24      0.91    1.09    0.95
  H0021440             CONDUIT     1.209     0  02:25      2.51    0.78    0.72
  H0021704             CONDUIT     0.721     0  02:25      1.63    1.37    0.70
  H0020521             CONDUIT     0.082     0  02:24      1.16    1.66    1.00
  H0020755             CONDUIT     0.110     0  02:25      0.87    1.21    1.00
  H0020530             CONDUIT     2.135     0  02:26      3.35    1.83    1.00
  H0020618             CONDUIT     1.548     0  02:26      3.30    0.96    0.72
  H0021163             CONDUIT     0.123     0  02:23      1.74    2.05    1.00
  H0020497             CONDUIT     0.000     0  00:00      0.00    0.00    1.00
  H0024325             CONDUIT     0.290     0  02:24      1.88    0.86    1.00
  H0023585             CONDUIT     0.556     0  02:24      2.83    1.28    1.00
  H0024098             CONDUIT     0.205     0  02:25      2.90    2.39    1.00
  H0024235             CONDUIT     0.322     0  02:25      1.64    1.32    1.00
  H0024282             CONDUIT     0.000     0  00:00      0.00    0.00    0.00
  H0024308             CONDUIT     2.146     0  02:26      5.67    0.63    0.58
  H0024498             CONDUIT     0.147     0  02:25      2.07    2.27    1.00
  H0026990             CONDUIT     0.086     0  02:25      0.81    0.65    1.00
  H0041650             CONDUIT     0.410     0  02:25      0.99    0.48    0.64
  H0041011             CONDUIT     0.117     0  02:23      1.66    1.16    1.00
  H0045103             CONDUIT     0.295     0  02:26      0.87    0.37    0.62
  H0045104             CONDUIT     2.133     0  02:26      4.69    0.76    0.67
  H0045105             CONDUIT     0.024     0  02:25      0.41    0.42    1.00
  H0045106             CONDUIT     0.420     0  02:24      2.40    0.56    1.00
  H0045107             CONDUIT     0.072     0  02:25      1.01    1.18    1.00
  H0045108             CONDUIT     0.089     0  02:27      1.26    1.61    1.00
  
  
  ***************************
  Flow Classification Summary
  ***************************
  
  -------------------------------------------------------------------------------------
                      Adjusted    ---------- Fraction of Time in Flow Class ---------- 
                       /Actual         Up    Down  Sub   Sup   Up    Down  Norm  Inlet 
  Conduit               Length    Dry  Dry   Dry   Crit  Crit  Crit  Crit  Ltd   Ctrl  
  -------------------------------------------------------------------------------------
  H0014431                1.00   0.03  0.00  0.00  0.97  0.00  0.00  0.00  0.97  0.00
  H0014433                1.00   0.03  0.00  0.00  0.97  0.00  0.00  0.00  0.97  0.00
  H0014352                1.00   0.03  0.00  0.00  0.95  0.02  0.00  0.00  0.97  0.00
  H0014373                1.00   0.03  0.00  0.00  0.93  0.04  0.00  0.00  0.92  0.00
  H0017981                1.00   0.03  0.00  0.00  0.00  0.00  0.00  0.97  0.00  0.00
  H0017755                1.00   0.03  0.00  0.00  0.00  0.00  0.00  0.97  0.00  0.00
  H0017791                1.00   0.03  0.00  0.00  0.97  0.00  0.00  0.00  0.97  0.00
  H0017357                1.00   0.03  0.97  0.00  0.00  0.00  0.00  0.00  0.97  0.00
  H0018216                1.00   0.03  0.92  0.00  0.05  0.00  0.00  0.00  0.97  0.00
  H0016792                1.00   0.03  0.92  0.00  0.05  0.00  0.00  0.00  0.97  0.00
  H0019507                1.00   0.03  0.00  0.00  0.97  0.00  0.00  0.00  0.97  0.00
  H0019998                1.00   0.03  0.00  0.00  0.93  0.04  0.00  0.00  0.05  0.00
  H0019576                1.00   0.03  0.00  0.00  0.95  0.02  0.00  0.00  0.05  0.00
  H0020087                1.00   0.03  0.96  0.00  0.02  0.00  0.00  0.00  0.96  0.00
  H0020211                1.00   0.03  0.00  0.00  0.97  0.00  0.00  0.00  0.91  0.00
  H0018982                1.00   0.03  0.00  0.00  0.97  0.00  0.00  0.00  0.94  0.00
  H0018753                1.00   0.03  0.00  0.00  0.97  0.00  0.00  0.00  0.97  0.00
  H0018845                1.00   1.00  0.00  0.00  0.00  0.00  0.00  0.00  0.00  0.00
  H0018863                1.00   0.03  0.00  0.00  0.97  0.00  0.00  0.00  0.97  0.00
  H0019156                1.00   1.00  0.00  0.00  0.00  0.00  0.00  0.00  0.00  0.00
  H0018929                1.00   0.03  0.92  0.00  0.05  0.00  0.00  0.00  0.97  0.00
  H0018440                1.00   0.03  0.00  0.00  0.97  0.00  0.00  0.00  0.97  0.00
  H0018456                1.00   0.03  0.00  0.00  0.97  0.00  0.00  0.00  0.97  0.00
  H0018968                1.00   0.03  0.00  0.00  0.93  0.04  0.00  0.00  0.93  0.00
  H0022036                1.00   0.03  0.00  0.00  0.01  0.00  0.00  0.96  0.01  0.00
  H0021806                1.00   0.03  0.92  0.00  0.05  0.00  0.00  0.00  0.96  0.00
  H0022111                1.00   0.03  0.00  0.00  0.97  0.00  0.00  0.00  0.00  0.00
  H0021440                1.00   0.03  0.00  0.00  0.95  0.02  0.00  0.00  0.02  0.00
  H0021704                1.00   0.03  0.00  0.00  0.00  0.00  0.00  0.97  0.00  0.00
  H0020521                1.00   0.03  0.00  0.00  0.97  0.00  0.00  0.00  0.97  0.00
  H0020755                1.00   0.03  0.93  0.00  0.04  0.00  0.00  0.00  0.97  0.00
  H0020530                1.00   0.03  0.00  0.00  0.95  0.02  0.00  0.00  0.01  0.00
  H0020618                1.00   0.03  0.00  0.00  0.94  0.03  0.00  0.00  0.93  0.00
  H0021163                1.00   0.03  0.00  0.00  0.96  0.01  0.00  0.00  0.94  0.00
  H0020497                1.20   0.03  0.97  0.00  0.00  0.00  0.00  0.00  0.00  0.00
  H0024325                1.00   0.03  0.00  0.00  0.95  0.02  0.00  0.00  0.94  0.00
  H0023585                1.00   0.03  0.00  0.00  0.00  0.00  0.00  0.97  0.00  0.00
  H0024098                1.00   0.03  0.93  0.00  0.04  0.00  0.00  0.00  0.97  0.00
  H0024235                1.00   0.03  0.00  0.00  0.00  0.00  0.00  0.97  0.00  0.00
  H0024282                1.00   1.00  0.00  0.00  0.00  0.00  0.00  0.00  0.00  0.00
  H0024308                1.00   0.03  0.00  0.00  0.92  0.06  0.00  0.00  0.01  0.00
  H0024498                1.00   0.03  0.00  0.00  0.00  0.00  0.00  0.97  0.00  0.00
  H0026990                1.00   0.03  0.00  0.00  0.97  0.00  0.00  0.00  0.97  0.00
  H0041650                1.00   0.95  0.01  0.00  0.04  0.00  0.00  0.00  0.96  0.00
  H0041011                1.00   0.03  0.00  0.00  0.97  0.00  0.00  0.00  0.97  0.00
  H0045103                1.00   0.03  0.00  0.00  0.97  0.00  0.00  0.00  0.95  0.00
  H0045104                1.00   0.03  0.00  0.00  0.93  0.05  0.00  0.00  0.05  0.00
  H0045105                1.00   0.03  0.00  0.00  0.97  0.00  0.00  0.00  0.97  0.00
  H0045106                1.00   0.03  0.92  0.00  0.02  0.03  0.00  0.00  0.97  0.00
  H0045107                1.00   0.03  0.00  0.00  0.97  0.00  0.00  0.00  0.97  0.00
  H0045108                1.00   0.03  0.00  0.00  0.97  0.00  0.00  0.00  0.97  0.00
  
  
  *************************
  Conduit Surcharge Summary
  *************************
  
  ----------------------------------------------------------------------------
                                                           Hours        Hours 
                         --------- Hours Full --------   Above Full   Capacity
  Conduit                Both Ends  Upstream  Dnstream   Normal Flow   Limited
  ----------------------------------------------------------------------------
  H0014431                    0.17      0.18      0.17      0.19         0.17
  H0014433                    0.11      0.11      0.15      0.03         0.03
  H0014352                    0.03      0.03      0.06      0.01         0.01
  H0017981                    0.07      0.11      0.07      0.21         0.10
  H0017755                    0.07      0.09      0.07      0.13         0.08
  H0017357                    0.01      0.01      0.11      0.07         0.01
  H0018216                    0.11      0.13      0.11      0.15         0.12
  H0016792                    0.01      0.01      0.02      0.01         0.01
  H0019507                    0.12      0.12      0.18      0.01         0.01
  H0019998                    0.01      0.01      0.03      0.01         0.01
  H0020211                    0.01      0.02      0.01      0.18         0.01
  H0018753                    0.11      0.11      0.18      0.01         0.01
  H0018863                    0.18      0.18      0.19      0.11         0.10
  H0018440                    0.15      0.20      0.15      0.23         0.18
  H0018456                    0.06      0.07      0.06      0.09         0.07
  H0021806                    0.09      0.12      0.09      0.14         0.11
  H0022111                    0.01      0.01      0.01      0.01         0.01
  H0021704                    0.01      0.01      0.01      0.08         0.01
  H0020521                    0.11      0.11      0.13      0.09         0.09
  H0020755                    0.06      0.06      0.07      0.02         0.02
  H0020530                    0.01      0.06      0.01      0.12         0.05
  H0021163                    0.14      0.15      0.16      0.15         0.13
  H0024325                    0.01      0.01      0.04      0.01         0.01
  H0023585                    0.04      0.07      0.04      0.08         0.06
  H0024098                    0.19      0.19      0.23      0.15         0.15
  H0024235                    0.01      0.03      0.01      0.05         0.02
  H0024498                    0.05      0.17      0.05      0.21         0.14
  H0026990                    0.03      0.03      0.06      0.01         0.01
  H0041011                    0.16      0.16      0.19      0.07         0.05
  H0045105                    0.03      0.03      0.04      0.01         0.01
  H0045106                    0.04      0.04      0.07      0.01         0.01
  H0045107                    0.14      0.14      0.17      0.05         0.05
  H0045108                    0.17      0.17      0.20      0.13         0.13
  

  Analysis begun on:  Fri Mar 22 15:56:03 2024
  Analysis ended on:  Fri Mar 22 15:56:15 2024
  Total elapsed time: 00:00:12