
  EPA STORM WATER MANAGEMENT MODEL - VERSION 5.2 (Build 5.2.4)
  PYSWMM TOOLKIT API - VERSION v1.0 (2023-11-27)
  ------------------------------------------------------------

  Gievenbeck_e2_T30D60 
  
  ****************
  Analysis Options
  ****************
  Flow Units ............... CMS
  Process Models:
    Rainfall/Runoff ........ YES
    RDII ................... NO
    Snowmelt ............... NO
    Groundwater ............ NO
    Flow Routing ........... YES
    Ponding Allowed ........ NO
    Water Quality .......... NO
  Infiltration Method ...... HORTON
  Flow Routing Method ...... DYNWAVE
  Surcharge Method ......... SLOT
  Starting Date ............ 01/01/2024 00:00:00
  Ending Date .............. 01/04/2024 04:00:00
  Antecedent Dry Days ...... 14.0
  Report Time Step ......... 00:01:00
  Wet Time Step ............ 00:01:00
  Dry Time Step ............ 00:01:00
  Routing Time Step ........ 1.00 sec
  Variable Time Step ....... YES
  Maximum Trials ........... 8
  Number of Threads ........ 1
  Head Tolerance ........... 0.001500 m
  
  
  **************************        Volume         Depth
  Runoff Quantity Continuity     hectare-m            mm
  **************************     ---------       -------
  Total Precipitation ......         0.360        35.590
  Evaporation Loss .........         0.010         0.965
  Infiltration Loss ........         0.156        15.411
  Surface Runoff ...........         0.195        19.280
  Final Storage ............         0.000         0.000
  Continuity Error (%) .....        -0.188
  
  
  **************************        Volume        Volume
  Flow Routing Continuity        hectare-m      10^6 ltr
  **************************     ---------     ---------
  Dry Weather Inflow .......         0.000         0.000
  Wet Weather Inflow .......         0.195         1.952
  Groundwater Inflow .......         0.000         0.000
  RDII Inflow ..............         0.000         0.000
  External Inflow ..........         0.000         0.000
  External Outflow .........         0.191         1.905
  Flooding Loss ............         0.005         0.047
  Evaporation Loss .........         0.000         0.000
  Exfiltration Loss ........         0.000         0.000
  Initial Stored Volume ....         0.000         0.000
  Final Stored Volume ......         0.000         0.000
  Continuity Error (%) .....        -0.035
  
  
  *************************
  Highest Continuity Errors
  *************************
  Node R0019206 (12.09%)
  Node R0019373 (1.39%)
  
  
  ***************************
  Time-Step Critical Elements
  ***************************
  None
  
  
  ********************************
  Highest Flow Instability Indexes
  ********************************
  All links are stable.
  
  
  *********************************
  Most Frequent Nonconverging Nodes
  *********************************
  Convergence obtained at all time steps.
  
  
  *************************
  Routing Time Step Summary
  *************************
  Minimum Time Step           :     0.50 sec
  Average Time Step           :     1.00 sec
  Maximum Time Step           :     1.00 sec
  % of Time in Steady State   :     0.00
  Average Iterations per Step :     2.00
  % of Steps Not Converging   :     0.00
  Time Step Frequencies       :
      1.000 -  0.871 sec      :   100.00 %
      0.871 -  0.758 sec      :     0.00 %
      0.758 -  0.660 sec      :     0.00 %
      0.660 -  0.574 sec      :     0.00 %
      0.574 -  0.500 sec      :     0.00 %
  
  
  ***************************
  Subcatchment Runoff Summary
  ***************************
  
  ------------------------------------------------------------------------------------------------------------------------------
                            Total      Total      Total      Total     Imperv       Perv      Total       Total     Peak  Runoff
                           Precip      Runon       Evap      Infil     Runoff     Runoff     Runoff      Runoff   Runoff   Coeff
  Subcatchment                 mm         mm         mm         mm         mm         mm         mm    10^6 ltr      CMS
  ------------------------------------------------------------------------------------------------------------------------------
  EZG_368                   35.59       0.00       0.96      15.52      16.89       4.82      19.17        0.08     0.13   0.539
  EZG_392                   35.59       0.00       0.96      15.42      16.90       4.92      19.29        0.06     0.10   0.542
  EZG_352                   35.59       0.00       0.97      15.69      16.88       4.64      18.99        0.11     0.18   0.534
  EZG_372                   35.59       0.00       0.94      15.10      16.92       5.26      19.64        0.03     0.05   0.552
  EZG_416                   35.59       0.00       0.95      15.38      16.90       4.97      19.33        0.06     0.10   0.543
  EZG_388                   35.59       0.00       0.96      15.57      16.89       4.77      19.12        0.09     0.14   0.537
  EZG_394                   35.59       0.00       0.95      15.36      16.90       4.99      19.35        0.05     0.09   0.544
  EZG_400                   35.59       0.00       0.95      15.33      16.90       5.02      19.39        0.05     0.09   0.545
  EZG_390                   35.59       0.00       0.96      15.41      16.90       4.93      19.30        0.06     0.10   0.542
  EZG_350                   35.59       0.00       0.96      15.57      16.89       4.77      19.12        0.09     0.14   0.537
  EZG_370                   35.59       0.00       0.96      15.46      16.89       4.88      19.24        0.07     0.11   0.541
  EZG_398                   35.59       0.00       0.94      14.99      16.93       5.37      19.76        0.02     0.04   0.555
  EZG_382                   35.59       0.00       0.94      14.96      16.93       5.41      19.80        0.02     0.03   0.556
  EZG_374                   35.59       0.00       1.15      12.46      20.26       4.83      22.05        0.08     0.14   0.620
  EZG_412                   35.59       0.00       0.93      14.72      16.94       5.66      20.07        0.01     0.02   0.564
  EZG_344                   35.59       0.00       0.95      15.32      16.90       5.03      19.39        0.05     0.08   0.545
  EZG_376                   35.59       0.00       0.95      15.23      16.91       5.12      19.49        0.04     0.07   0.548
  EZG_356                   35.59       0.00       0.97      15.73      16.88       4.60      18.95        0.12     0.19   0.532
  EZG_386                   35.59       0.00       0.97      15.85      16.87       4.48      18.82        0.15     0.23   0.529
  EZG_380                   35.59       0.00       0.96      15.50      16.89       4.84      19.20        0.07     0.12   0.539
  EZG_378                   35.59       0.00       0.96      15.44      16.89       4.90      19.26        0.07     0.11   0.541
  EZG_414                   35.59       0.00       0.94      14.95      16.93       5.41      19.80        0.02     0.03   0.556
  EZG_402                   35.59       0.00       0.96      15.42      16.90       4.92      19.28        0.06     0.10   0.542
  EZG_358                   35.59       0.00       0.97      15.73      16.88       4.61      18.95        0.12     0.19   0.533
  EZG_364                   35.59       0.00       0.97      15.73      16.88       4.61      18.95        0.12     0.19   0.533
  EZG_410                   35.59       0.00       0.95      15.25      16.91       5.10      19.47        0.04     0.07   0.547
  EZG_366                   35.59       0.00       0.95      15.30      16.90       5.05      19.42        0.05     0.08   0.546
  EZG_18259                 35.59       0.00       0.95      15.30      16.90       5.05      19.42        0.05     0.08   0.546
  EZG_18258                 35.59       0.00       0.93      14.84      16.94       5.53      19.92        0.01     0.02   0.560
  EZG_346                   35.59       0.00       0.94      15.77      16.56       4.87      18.95        0.07     0.11   0.532
  EZG_348                   35.59       0.00       0.93      15.57      16.57       5.08      19.17        0.04     0.07   0.539
  
  
  ******************
  Node Depth Summary
  ******************
  
  ---------------------------------------------------------------------------------
                                 Average  Maximum  Maximum  Time of Max    Reported
                                   Depth    Depth      HGL   Occurrence   Max Depth
  Node                 Type       Meters   Meters   Meters  days hr:min      Meters
  ---------------------------------------------------------------------------------
  R0019466             JUNCTION     0.00     1.75    71.20     0  02:25        1.73
  R0019468             JUNCTION     0.00     1.81    71.12     0  02:25        1.61
  R0019831             JUNCTION     0.00     1.66    70.83     0  02:24        1.66
  R0019825             JUNCTION     0.00     1.50    70.34     0  02:22        1.50
  R0019843             JUNCTION     0.00     1.52    69.15     0  02:25        1.26
  R0019368             JUNCTION     0.01     1.59    68.38     0  02:25        1.42
  R0019369             JUNCTION     0.00     0.78    67.37     0  02:26        0.77
  R0019370             JUNCTION     0.00     0.61    66.51     0  02:25        0.61
  R0019345             JUNCTION     0.00     1.20    71.10     0  02:25        1.19
  R0019346             JUNCTION     0.00     0.99    70.79     0  02:25        0.96
  R0043600             JUNCTION     0.00     0.64    70.31     0  02:25        0.63
  R0019203             JUNCTION     0.00     0.64    70.18     0  02:25        0.64
  R0043594             JUNCTION     0.00     0.51    70.24     0  02:25        0.50
  R0021458             JUNCTION     0.00     0.58    70.23     0  02:26        0.58
  R0019202             JUNCTION     0.00     0.62    70.20     0  02:25        0.62
  R0019373             JUNCTION     0.00     1.45    71.12     0  02:25        1.41
  R0019254             JUNCTION     0.00     1.96    72.00     0  02:25        1.96
  R0019716             JUNCTION     0.00     0.85    69.86     0  02:25        0.84
  R0019946             JUNCTION     0.01     1.03    69.65     0  02:26        1.03
  R0013935             JUNCTION     0.00     1.62    70.45     0  02:24        1.62
  R0019939             JUNCTION     0.00     1.59    70.16     0  02:25        1.59
  R0019944             JUNCTION     0.00     0.88    69.16     0  02:25        0.82
  R0043703             JUNCTION     0.00     0.79    69.39     0  02:26        0.78
  R0019945             JUNCTION     0.00     0.85    69.25     0  02:25        0.85
  R0039621             JUNCTION     0.00     1.32    70.89     0  02:25        1.04
  R0019838             JUNCTION     0.00     1.43    70.89     0  02:25        1.12
  R0039606             JUNCTION     0.00     0.61    70.20     0  02:25        0.61
  R0019204             JUNCTION     0.00     0.00    69.91     0  00:00        0.00
  R0019205             JUNCTION     0.00     0.00    69.62     0  00:00        0.00
  R0019849             JUNCTION     0.00     1.30    69.82     0  02:25        1.28
  R0019371             JUNCTION     0.00     0.00    70.41     0  00:00        0.00
  R0019718             JUNCTION     0.00     0.74    70.16     0  02:25        0.73
  R0021442             JUNCTION     0.01     2.05    72.10     0  02:22        2.05
  R0019247             JUNCTION     0.00     1.16    71.04     0  02:25        1.16
  R0019719             JUNCTION     0.00     0.74    70.42     0  02:25        0.74
  R0019767             JUNCTION     0.00     0.65    65.38     0  02:26        0.65
  R0019768             JUNCTION     0.00     0.54    64.31     0  02:26        0.53
  R0021453             JUNCTION     0.00     0.28    70.23     0  02:25        0.27
  R0019839             JUNCTION     0.00     1.43    70.82     0  02:25        1.12
  R0019717             JUNCTION     0.00     0.68    70.02     0  02:25        0.68
  R0019252             JUNCTION     0.00     1.94    72.13     0  02:23        1.94
  R0019721             JUNCTION     0.00     1.07    70.94     0  02:25        1.03
  R0019942             JUNCTION     0.00     1.27    69.92     0  02:25        1.26
  R0019206             JUNCTION     0.00     0.02    69.09     0  02:25        0.00
  R0019840             JUNCTION     0.00     1.49    70.46     0  02:25        1.24
  R0043702             JUNCTION     0.00     1.66    70.36     0  02:25        1.42
  R0019723             JUNCTION     0.00     0.96    71.04     0  02:25        0.95
  R0019724             JUNCTION     0.00     0.91    71.07     0  02:25        0.88
  R0021433             JUNCTION     0.00     2.15    72.54     0  02:22        2.15
  R0021435             JUNCTION     0.01     2.11    72.29     0  02:22        2.11
  R0019769             OUTFALL      0.00     0.54    63.92     0  02:26        0.53
  
  
  *******************
  Node Inflow Summary
  *******************
  
  -------------------------------------------------------------------------------------------------
                                  Maximum  Maximum                  Lateral       Total        Flow
                                  Lateral    Total  Time of Max      Inflow      Inflow     Balance
                                   Inflow   Inflow   Occurrence      Volume      Volume       Error
  Node                 Type           CMS      CMS  days hr:min    10^6 ltr    10^6 ltr     Percent
  -------------------------------------------------------------------------------------------------
  R0019466             JUNCTION     0.129    0.129     0  02:25      0.0792       0.116       0.058
  R0019468             JUNCTION     0.080    0.158     0  02:24      0.0465       0.153      -0.026
  R0019831             JUNCTION     0.105    0.105     0  02:25      0.0624      0.0624       0.120
  R0019825             JUNCTION     0.105    0.205     0  02:25      0.0627       0.125       0.164
  R0019843             JUNCTION     0.000    2.335     0  02:25           0         1.9      -0.022
  R0019368             JUNCTION     0.000    2.260     0  02:25           0         1.9      -0.031
  R0019369             JUNCTION     0.000    2.276     0  02:25           0        1.91      -0.024
  R0019370             JUNCTION     0.000    2.253     0  02:26           0        1.91       0.003
  R0019345             JUNCTION     0.000    0.159     0  02:24           0       0.118       0.047
  R0019346             JUNCTION     0.017    0.290     0  02:25     0.00801       0.202       0.010
  R0043600             JUNCTION     0.000    0.215     0  02:25           0       0.207      -0.095
  R0019203             JUNCTION     0.034    0.690     0  02:25      0.0175       0.542      -0.009
  R0043594             JUNCTION     0.176    0.235     0  02:25       0.112       0.161      -0.052
  R0021458             JUNCTION     0.141    0.316     0  02:25      0.0878       0.249      -0.001
  R0019202             JUNCTION     0.049    0.466     0  02:26      0.0266       0.316      -0.385
  R0019373             JUNCTION     0.114    0.159     0  02:25       0.069      0.0785       1.411
  R0019254             JUNCTION     0.095    0.164     0  02:23      0.0563       0.118       0.034
  R0019716             JUNCTION     0.141    1.453     0  02:25      0.0872         1.1      -0.020
  R0019946             JUNCTION     0.000    1.395     0  02:25           0         1.1       0.008
  R0013935             JUNCTION     0.091    0.091     0  02:25      0.0537      0.0537       0.082
  R0019939             JUNCTION     0.037    0.120     0  02:24      0.0196       0.073      -0.096
  R0019944             JUNCTION     0.086    1.723     0  02:26      0.0499        1.39       0.026
  R0043703             JUNCTION     0.102    1.466     0  02:25      0.0611        1.16       0.005
  R0019945             JUNCTION     0.000    1.670     0  02:25           0        1.34      -0.008
  R0039621             JUNCTION     0.000    0.081     0  02:24           0     0.00376      -3.486
  R0019838             JUNCTION     0.189    0.189     0  02:25       0.121       0.125      -0.069
  R0039606             JUNCTION     0.000    0.303     0  02:26           0       0.249       0.053
  R0019204             JUNCTION     0.000    0.000     0  00:00           0           0       0.000 ltr
  R0019205             JUNCTION     0.000    0.000     0  00:00           0           0       0.000 ltr
  R0019849             JUNCTION     0.000    0.212     0  02:25           0       0.183       0.006
  R0019371             JUNCTION     0.000    0.000     0  00:00           0           0       0.000 ltr
  R0019718             JUNCTION     0.123    0.788     0  02:25      0.0747       0.616      -0.780
  R0021442             JUNCTION     0.138    0.210     0  02:25      0.0836       0.176       0.024
  R0019247             JUNCTION     0.069    0.216     0  02:25      0.0389       0.207       0.111
  R0019719             JUNCTION     0.072    0.356     0  02:25      0.0409       0.242       0.624
  R0019767             JUNCTION     0.000    2.258     0  02:26           0        1.91      -0.006
  R0019768             JUNCTION     0.000    2.275     0  02:26           0        1.91       0.009
  R0021453             JUNCTION     0.084    0.084     0  02:25       0.049       0.049      -0.021
  R0019839             JUNCTION     0.187    0.340     0  02:25        0.12       0.242       0.043
  R0019717             JUNCTION     0.228    1.329     0  02:25        0.15        1.01       0.217
  R0019252             JUNCTION     0.110    0.110     0  02:25       0.066       0.066      -0.049
  R0019721             JUNCTION     0.033    0.130     0  02:25      0.0172      0.0758       0.152
  R0019942             JUNCTION     0.000    0.123     0  02:22           0        0.11      -0.290
  R0019206             JUNCTION     0.000    0.014     0  02:25           0    4.17e-05      13.749
  R0019840             JUNCTION     0.000    0.465     0  02:25           0       0.395      -0.000
  R0043702             JUNCTION     0.187    0.614     0  02:25        0.12       0.515       0.407
  R0019723             JUNCTION     0.080    0.100     0  02:25      0.0461      0.0584      -0.273
  R0019724             JUNCTION     0.024    0.028     0  02:23      0.0122      0.0122      -0.382
  R0021433             JUNCTION     0.114    0.114     0  02:25      0.0689      0.0689      -0.133
  R0021435             JUNCTION     0.074    0.146     0  02:25      0.0426       0.106      -0.101
  R0019769             OUTFALL      0.000    2.284     0  02:26           0        1.91       0.000
  
  
  **********************
  Node Surcharge Summary
  **********************
  
  Surcharging occurs when water rises above the top of the highest conduit.
  ---------------------------------------------------------------------
                                               Max. Height   Min. Depth
                                   Hours       Above Crown    Below Rim
  Node                 Type      Surcharged         Meters       Meters
  ---------------------------------------------------------------------
  R0019466             JUNCTION        0.20          1.454        1.056
  R0019468             JUNCTION        0.19          1.509        0.921
  R0019831             JUNCTION        0.13          1.360        0.000
  R0019825             JUNCTION        0.17          1.200        0.000
  R0019843             JUNCTION        0.06          0.625        1.995
  R0019368             JUNCTION        0.09          0.690        0.360
  R0019345             JUNCTION        0.12          0.904        0.846
  R0019346             JUNCTION        0.09          0.589        1.151
  R0043600             JUNCTION        0.11          0.242        2.338
  R0019373             JUNCTION        0.13          1.146        1.354
  R0019254             JUNCTION        0.14          1.659        0.171
  R0019946             JUNCTION        0.05          0.132        1.388
  R0013935             JUNCTION        0.13          1.320        0.000
  R0019939             JUNCTION        0.20          1.290        0.330
  R0039621             JUNCTION        0.03          0.818        0.242
  R0019838             JUNCTION        0.04          0.926        0.374
  R0019849             JUNCTION        0.22          0.999        0.931
  R0021442             JUNCTION        0.22          1.750        0.000
  R0019247             JUNCTION        0.13          0.759        1.101
  R0019719             JUNCTION        0.05          0.243        1.557
  R0019839             JUNCTION        0.04          0.933        0.717
  R0019252             JUNCTION        0.12          1.640        0.000
  R0019721             JUNCTION        0.08          0.666        0.894
  R0019942             JUNCTION        0.18          0.971        0.679
  R0019840             JUNCTION        0.07          0.988        1.582
  R0043702             JUNCTION        0.09          1.156        1.754
  R0019723             JUNCTION        0.05          0.562        0.758
  R0019724             JUNCTION        0.05          0.606        0.844
  R0021433             JUNCTION        0.16          1.850        0.000
  R0021435             JUNCTION        0.20          1.810        0.000
  
  
  *********************
  Node Flooding Summary
  *********************
  
  Flooding refers to all water that overflows a node, whether it ponds or not.
  --------------------------------------------------------------------------
                                                             Total   Maximum
                                 Maximum   Time of Max       Flood    Ponded
                        Hours       Rate    Occurrence      Volume     Depth
  Node                 Flooded       CMS   days hr:min    10^6 ltr    Meters
  --------------------------------------------------------------------------
  R0019831                0.01     0.004      0  02:25       0.000     0.000
  R0019825                0.07     0.109      0  02:25       0.015     0.000
  R0013935                0.01     0.009      0  02:25       0.000     0.000
  R0021442                0.06     0.062      0  02:25       0.008     0.000
  R0019252                0.04     0.056      0  02:25       0.004     0.000
  R0021433                0.06     0.042      0  02:25       0.005     0.000
  R0021435                0.07     0.073      0  02:25       0.014     0.000
  
  
  ***********************
  Outfall Loading Summary
  ***********************
  
  -----------------------------------------------------------
                         Flow       Avg       Max       Total
                         Freq      Flow      Flow      Volume
  Outfall Node           Pcnt       CMS       CMS    10^6 ltr
  -----------------------------------------------------------
  R0019769               4.68     0.149     2.284       1.905
  -----------------------------------------------------------
  System                 4.68     0.149     2.284       1.905
  
  
  ********************
  Link Flow Summary
  ********************
  
  -----------------------------------------------------------------------------
                                 Maximum  Time of Max   Maximum    Max/    Max/
                                  |Flow|   Occurrence   |Veloc|    Full    Full
  Link                 Type          CMS  days hr:min     m/sec    Flow   Depth
  -----------------------------------------------------------------------------
  H0014431             CONDUIT     0.082     0  02:23      1.16    1.52    1.00
  H0014433             CONDUIT     0.100     0  02:25      1.42    1.28    1.00
  H0014352             CONDUIT     2.260     0  02:25      3.55    0.93    1.00
  H0014373             CONDUIT     2.253     0  02:26      4.33    1.04    0.77
  H0017981             CONDUIT     0.154     0  02:23      2.18    4.36    1.00
  H0017755             CONDUIT     0.213     0  02:24      1.70    1.73    1.00
  H0017791             CONDUIT     0.208     0  02:25      0.70    0.30    0.60
  H0017357             CONDUIT     0.155     0  02:25      2.19    2.47    1.00
  H0018216             CONDUIT     0.159     0  02:24      2.25    2.89    1.00
  H0016792             CONDUIT     1.395     0  02:25      2.19    0.80    1.00
  H0019507             CONDUIT     0.084     0  02:24      1.18    1.16    1.00
  H0019998             CONDUIT     1.767     0  02:25      3.40    0.71    1.00
  H0019576             CONDUIT     1.463     0  02:25      2.59    0.98    0.90
  H0020087             CONDUIT     0.081     0  02:24      0.41    0.35    1.00
  H0020211             CONDUIT     1.386     0  02:25      2.20    3.45    1.00
  H0018982             CONDUIT     0.303     0  02:26      0.83    0.49    0.66
  H0018753             CONDUIT     0.056     0  02:25      0.79    0.79    1.00
  H0018845             CONDUIT     0.000     0  00:00      0.00    0.00    0.00
  H0018863             CONDUIT     0.118     0  02:25      1.67    2.78    1.00
  H0019156             CONDUIT     0.000     0  00:00      0.00    0.00    0.00
  H0018929             CONDUIT     0.697     0  02:26      1.39    0.60    0.76
  H0018440             CONDUIT     0.161     0  02:22      2.28    2.88    1.00
  H0018456             CONDUIT     0.291     0  02:25      2.31    1.77    1.00
  H0018968             CONDUIT     2.275     0  02:26      5.09    0.87    0.66
  H0022036             CONDUIT     0.082     0  02:25      0.53    0.06    0.42
  H0021806             CONDUIT     0.215     0  02:25      1.71    1.90    1.00
  H0022111             CONDUIT     0.174     0  02:25      0.91    1.25    1.00
  H0021440             CONDUIT     1.328     0  02:25      2.51    0.86    0.85
  H0021704             CONDUIT     0.784     0  02:25      1.63    1.49    0.77
  H0020521             CONDUIT     0.082     0  02:23      1.15    1.65    1.00
  H0020755             CONDUIT     0.130     0  02:25      1.03    1.43    1.00
  H0020530             CONDUIT     2.276     0  02:25      3.58    1.95    1.00
  H0020618             CONDUIT     1.676     0  02:26      3.35    1.04    0.94
  H0021163             CONDUIT     0.123     0  02:22      1.74    2.05    1.00
  H0020497             CONDUIT     0.014     0  02:25      0.20    0.03    1.00
  H0024325             CONDUIT     0.324     0  02:25      1.87    0.96    1.00
  H0023585             CONDUIT     0.623     0  02:25      3.17    1.43    1.00
  H0024098             CONDUIT     0.211     0  02:25      2.98    2.46    1.00
  H0024235             CONDUIT     0.355     0  02:25      1.81    1.45    1.00
  H0024282             CONDUIT     0.000     0  00:00      0.00    0.00    0.03
  H0024308             CONDUIT     2.284     0  02:26      5.75    0.67    0.60
  H0024498             CONDUIT     0.152     0  02:24      2.14    2.35    1.00
  H0026990             CONDUIT     0.098     0  02:25      0.82    0.74    1.00
  H0041650             CONDUIT     0.473     0  02:26      1.02    0.55    0.70
  H0041011             CONDUIT     0.117     0  02:23      1.66    1.16    1.00
  H0045103             CONDUIT     0.329     0  02:26      0.90    0.41    0.68
  H0045104             CONDUIT     2.258     0  02:26      4.75    0.80    0.70
  H0045105             CONDUIT     0.026     0  02:25      0.42    0.45    1.00
  H0045106             CONDUIT     0.458     0  02:25      2.40    0.62    1.00
  H0045107             CONDUIT     0.072     0  02:26      1.01    1.18    1.00
  H0045108             CONDUIT     0.089     0  02:27      1.26    1.60    1.00
  
  
  ***************************
  Flow Classification Summary
  ***************************
  
  -------------------------------------------------------------------------------------
                      Adjusted    ---------- Fraction of Time in Flow Class ---------- 
                       /Actual         Up    Down  Sub   Sup   Up    Down  Norm  Inlet 
  Conduit               Length    Dry  Dry   Dry   Crit  Crit  Crit  Crit  Ltd   Ctrl  
  -------------------------------------------------------------------------------------
  H0014431                1.00   0.03  0.00  0.00  0.97  0.00  0.00  0.00  0.97  0.00
  H0014433                1.00   0.03  0.00  0.00  0.97  0.00  0.00  0.00  0.97  0.00
  H0014352                1.00   0.03  0.00  0.00  0.95  0.02  0.00  0.00  0.97  0.00
  H0014373                1.00   0.03  0.00  0.00  0.93  0.04  0.00  0.00  0.92  0.00
  H0017981                1.00   0.03  0.00  0.00  0.00  0.00  0.00  0.97  0.00  0.00
  H0017755                1.00   0.03  0.00  0.00  0.00  0.00  0.00  0.97  0.00  0.00
  H0017791                1.00   0.03  0.00  0.00  0.97  0.00  0.00  0.00  0.97  0.00
  H0017357                1.00   0.03  0.97  0.00  0.00  0.00  0.00  0.00  0.97  0.00
  H0018216                1.00   0.03  0.92  0.00  0.05  0.00  0.00  0.00  0.97  0.00
  H0016792                1.00   0.03  0.92  0.00  0.05  0.00  0.00  0.00  0.97  0.00
  H0019507                1.00   0.03  0.00  0.00  0.97  0.00  0.00  0.00  0.97  0.00
  H0019998                1.00   0.03  0.00  0.00  0.93  0.04  0.00  0.00  0.05  0.00
  H0019576                1.00   0.03  0.00  0.00  0.95  0.02  0.00  0.00  0.05  0.00
  H0020087                1.00   0.03  0.96  0.00  0.02  0.00  0.00  0.00  0.96  0.00
  H0020211                1.00   0.03  0.00  0.00  0.97  0.00  0.00  0.00  0.91  0.00
  H0018982                1.00   0.03  0.00  0.00  0.97  0.00  0.00  0.00  0.94  0.00
  H0018753                1.00   0.03  0.00  0.00  0.97  0.00  0.00  0.00  0.97  0.00
  H0018845                1.00   1.00  0.00  0.00  0.00  0.00  0.00  0.00  0.00  0.00
  H0018863                1.00   0.03  0.00  0.00  0.97  0.00  0.00  0.00  0.96  0.00
  H0019156                1.00   1.00  0.00  0.00  0.00  0.00  0.00  0.00  0.00  0.00
  H0018929                1.00   0.03  0.92  0.00  0.05  0.00  0.00  0.00  0.97  0.00
  H0018440                1.00   0.03  0.00  0.00  0.97  0.00  0.00  0.00  0.97  0.00
  H0018456                1.00   0.03  0.00  0.00  0.97  0.00  0.00  0.00  0.96  0.00
  H0018968                1.00   0.03  0.91  0.00  0.01  0.04  0.00  0.00  0.93  0.00
  H0022036                1.00   0.03  0.00  0.00  0.01  0.00  0.00  0.96  0.01  0.00
  H0021806                1.00   0.03  0.92  0.00  0.05  0.00  0.00  0.00  0.96  0.00
  H0022111                1.00   0.03  0.00  0.00  0.97  0.00  0.00  0.00  0.00  0.00
  H0021440                1.00   0.03  0.00  0.00  0.95  0.02  0.00  0.00  0.02  0.00
  H0021704                1.00   0.03  0.00  0.00  0.00  0.00  0.00  0.97  0.00  0.00
  H0020521                1.00   0.03  0.00  0.00  0.97  0.00  0.00  0.00  0.97  0.00
  H0020755                1.00   0.03  0.93  0.00  0.04  0.00  0.00  0.00  0.97  0.00
  H0020530                1.00   0.03  0.00  0.00  0.95  0.02  0.00  0.00  0.01  0.00
  H0020618                1.00   0.03  0.00  0.00  0.94  0.03  0.00  0.00  0.93  0.00
  H0021163                1.00   0.03  0.00  0.00  0.96  0.01  0.00  0.00  0.94  0.00
  H0020497                1.20   0.03  0.97  0.00  0.00  0.00  0.00  0.00  0.97  0.00
  H0024325                1.00   0.03  0.00  0.00  0.95  0.02  0.00  0.00  0.94  0.00
  H0023585                1.00   0.03  0.00  0.00  0.00  0.00  0.00  0.97  0.00  0.00
  H0024098                1.00   0.03  0.93  0.00  0.04  0.00  0.00  0.00  0.97  0.00
  H0024235                1.00   0.03  0.00  0.00  0.00  0.00  0.00  0.97  0.00  0.00
  H0024282                1.00   1.00  0.00  0.00  0.00  0.00  0.00  0.00  0.00  0.00
  H0024308                1.00   0.03  0.00  0.00  0.92  0.06  0.00  0.00  0.01  0.00
  H0024498                1.00   0.03  0.00  0.00  0.00  0.00  0.00  0.97  0.00  0.00
  H0026990                1.00   0.03  0.00  0.00  0.97  0.00  0.00  0.00  0.97  0.00
  H0041650                1.00   0.95  0.01  0.00  0.04  0.00  0.00  0.00  0.96  0.00
  H0041011                1.00   0.03  0.00  0.00  0.97  0.00  0.00  0.00  0.96  0.00
  H0045103                1.00   0.03  0.00  0.00  0.97  0.00  0.00  0.00  0.95  0.00
  H0045104                1.00   0.03  0.00  0.00  0.93  0.05  0.00  0.00  0.05  0.00
  H0045105                1.00   0.03  0.00  0.00  0.97  0.00  0.00  0.00  0.97  0.00
  H0045106                1.00   0.03  0.92  0.00  0.02  0.03  0.00  0.00  0.97  0.00
  H0045107                1.00   0.03  0.00  0.00  0.97  0.00  0.00  0.00  0.97  0.00
  H0045108                1.00   0.03  0.00  0.00  0.97  0.00  0.00  0.00  0.97  0.00
  
  
  *************************
  Conduit Surcharge Summary
  *************************
  
  ----------------------------------------------------------------------------
                                                           Hours        Hours 
                         --------- Hours Full --------   Above Full   Capacity
  Conduit                Both Ends  Upstream  Dnstream   Normal Flow   Limited
  ----------------------------------------------------------------------------
  H0014431                    0.19      0.20      0.19      0.20         0.18
  H0014433                    0.13      0.13      0.17      0.05         0.04
  H0014352                    0.06      0.06      0.09      0.01         0.01
  H0014373                    0.01      0.01      0.01      0.04         0.01
  H0017981                    0.09      0.12      0.09      0.25         0.11
  H0017755                    0.09      0.11      0.09      0.15         0.10
  H0017357                    0.05      0.05      0.13      0.09         0.01
  H0018216                    0.12      0.14      0.12      0.17         0.13
  H0016792                    0.01      0.01      0.05      0.01         0.01
  H0019507                    0.13      0.13      0.20      0.04         0.03
  H0019998                    0.01      0.01      0.06      0.01         0.01
  H0020087                    0.03      0.03      0.04      0.01         0.01
  H0020211                    0.01      0.05      0.01      0.21         0.01
  H0018753                    0.13      0.13      0.20      0.01         0.01
  H0018863                    0.20      0.20      0.22      0.12         0.12
  H0018440                    0.17      0.22      0.17      0.28         0.21
  H0018456                    0.08      0.09      0.08      0.11         0.08
  H0021806                    0.11      0.13      0.11      0.15         0.12
  H0022111                    0.04      0.04      0.04      0.04         0.02
  H0021704                    0.01      0.01      0.01      0.10         0.01
  H0020521                    0.12      0.12      0.14      0.10         0.09
  H0020755                    0.08      0.08      0.09      0.04         0.04
  H0020530                    0.01      0.09      0.01      0.14         0.08
  H0020618                    0.01      0.01      0.01      0.02         0.01
  H0021163                    0.16      0.17      0.18      0.16         0.15
  H0020497                    0.01      0.01     73.58      0.01         0.01
  H0024325                    0.04      0.04      0.07      0.01         0.01
  H0023585                    0.06      0.09      0.06      0.10         0.09
  H0024098                    0.22      0.22      0.26      0.18         0.17
  H0024235                    0.04      0.05      0.04      0.07         0.04
  H0024498                    0.07      0.19      0.07      0.23         0.16
  H0026990                    0.05      0.05      0.08      0.01         0.01
  H0041011                    0.18      0.18      0.22      0.05         0.04
  H0045105                    0.05      0.05      0.06      0.01         0.01
  H0045106                    0.07      0.07      0.09      0.01         0.01
  H0045107                    0.16      0.16      0.20      0.07         0.07
  H0045108                    0.20      0.20      0.22      0.15         0.15
  

  Analysis begun on:  Fri Mar 22 15:56:39 2024
  Analysis ended on:  Fri Mar 22 15:56:48 2024
  Total elapsed time: 00:00:09