
  EPA STORM WATER MANAGEMENT MODEL - VERSION 5.2 (Build 5.2.4)
  PYSWMM TOOLKIT API - VERSION v1.0 (2023-11-27)
  ------------------------------------------------------------

  Gievenbeck_2020-08-24 07 15 00_hN6 44 
  
  ****************
  Analysis Options
  ****************
  Flow Units ............... CMS
  Process Models:
    Rainfall/Runoff ........ YES
    RDII ................... NO
    Snowmelt ............... NO
    Groundwater ............ NO
    Flow Routing ........... YES
    Ponding Allowed ........ NO
    Water Quality .......... NO
  Infiltration Method ...... HORTON
  Flow Routing Method ...... DYNWAVE
  Surcharge Method ......... SLOT
  Starting Date ............ 01/01/2024 00:00:00
  Ending Date .............. 01/04/2024 04:00:00
  Antecedent Dry Days ...... 14.0
  Report Time Step ......... 00:01:00
  Wet Time Step ............ 00:01:00
  Dry Time Step ............ 00:01:00
  Routing Time Step ........ 1.00 sec
  Variable Time Step ....... YES
  Maximum Trials ........... 8
  Number of Threads ........ 1
  Head Tolerance ........... 0.001500 m
  
  
  **************************        Volume         Depth
  Runoff Quantity Continuity     hectare-m            mm
  **************************     ---------       -------
  Total Precipitation ......         0.065         6.440
  Evaporation Loss .........         0.011         1.053
  Infiltration Loss ........         0.036         3.529
  Surface Runoff ...........         0.019         1.869
  Final Storage ............         0.000         0.000
  Continuity Error (%) .....        -0.168
  
  
  **************************        Volume        Volume
  Flow Routing Continuity        hectare-m      10^6 ltr
  **************************     ---------     ---------
  Dry Weather Inflow .......         0.000         0.000
  Wet Weather Inflow .......         0.019         0.189
  Groundwater Inflow .......         0.000         0.000
  RDII Inflow ..............         0.000         0.000
  External Inflow ..........         0.000         0.000
  External Outflow .........         0.019         0.189
  Flooding Loss ............         0.000         0.000
  Evaporation Loss .........         0.000         0.000
  Exfiltration Loss ........         0.000         0.000
  Initial Stored Volume ....         0.000         0.000
  Final Stored Volume ......         0.000         0.000
  Continuity Error (%) .....        -0.184
  
  
  ***************************
  Time-Step Critical Elements
  ***************************
  None
  
  
  ********************************
  Highest Flow Instability Indexes
  ********************************
  All links are stable.
  
  
  *********************************
  Most Frequent Nonconverging Nodes
  *********************************
  Convergence obtained at all time steps.
  
  
  *************************
  Routing Time Step Summary
  *************************
  Minimum Time Step           :     0.50 sec
  Average Time Step           :     1.00 sec
  Maximum Time Step           :     1.00 sec
  % of Time in Steady State   :     0.00
  Average Iterations per Step :     2.00
  % of Steps Not Converging   :     0.00
  Time Step Frequencies       :
      1.000 -  0.871 sec      :   100.00 %
      0.871 -  0.758 sec      :     0.00 %
      0.758 -  0.660 sec      :     0.00 %
      0.660 -  0.574 sec      :     0.00 %
      0.574 -  0.500 sec      :     0.00 %
  
  
  ***************************
  Subcatchment Runoff Summary
  ***************************
  
  ------------------------------------------------------------------------------------------------------------------------------
                            Total      Total      Total      Total     Imperv       Perv      Total       Total     Peak  Runoff
                           Precip      Runon       Evap      Infil     Runoff     Runoff     Runoff      Runoff   Runoff   Coeff
  Subcatchment                 mm         mm         mm         mm         mm         mm         mm    10^6 ltr      CMS
  ------------------------------------------------------------------------------------------------------------------------------
  EZG_368                    6.44       0.00       1.05       3.55       2.18       0.00       1.86        0.01     0.01   0.288
  EZG_392                    6.44       0.00       1.04       3.55       2.19       0.00       1.86        0.01     0.01   0.289
  EZG_352                    6.44       0.00       1.05       3.55       2.18       0.00       1.85        0.01     0.02   0.287
  EZG_372                    6.44       0.00       1.03       3.55       2.20       0.00       1.87        0.00     0.01   0.291
  EZG_416                    6.44       0.00       1.04       3.55       2.19       0.00       1.86        0.01     0.01   0.289
  EZG_388                    6.44       0.00       1.05       3.55       2.18       0.00       1.85        0.01     0.01   0.288
  EZG_394                    6.44       0.00       1.04       3.55       2.19       0.00       1.86        0.01     0.01   0.289
  EZG_400                    6.44       0.00       1.04       3.55       2.19       0.00       1.86        0.00     0.01   0.289
  EZG_390                    6.44       0.00       1.04       3.55       2.19       0.00       1.86        0.01     0.01   0.289
  EZG_350                    6.44       0.00       1.05       3.55       2.18       0.00       1.85        0.01     0.01   0.288
  EZG_370                    6.44       0.00       1.04       3.55       2.19       0.00       1.86        0.01     0.01   0.289
  EZG_398                    6.44       0.00       1.03       3.55       2.21       0.00       1.88        0.00     0.00   0.292
  EZG_382                    6.44       0.00       1.03       3.55       2.21       0.00       1.88        0.00     0.00   0.292
  EZG_374                    6.44       0.00       1.26       2.97       2.61       0.00       2.22        0.01     0.01   0.345
  EZG_412                    6.44       0.00       1.02       3.55       2.22       0.00       1.89        0.00     0.00   0.293
  EZG_344                    6.44       0.00       1.04       3.55       2.19       0.00       1.86        0.00     0.01   0.289
  EZG_376                    6.44       0.00       1.04       3.55       2.20       0.00       1.87        0.00     0.01   0.290
  EZG_356                    6.44       0.00       1.05       3.55       2.17       0.00       1.85        0.01     0.02   0.287
  EZG_386                    6.44       0.00       1.06       3.55       2.17       0.00       1.84        0.01     0.02   0.286
  EZG_380                    6.44       0.00       1.05       3.55       2.18       0.00       1.86        0.01     0.01   0.288
  EZG_378                    6.44       0.00       1.04       3.55       2.19       0.00       1.86        0.01     0.01   0.289
  EZG_414                    6.44       0.00       1.03       3.55       2.21       0.00       1.88        0.00     0.00   0.292
  EZG_402                    6.44       0.00       1.04       3.55       2.19       0.00       1.86        0.01     0.01   0.289
  EZG_358                    6.44       0.00       1.05       3.55       2.18       0.00       1.85        0.01     0.02   0.287
  EZG_364                    6.44       0.00       1.05       3.55       2.18       0.00       1.85        0.01     0.02   0.287
  EZG_410                    6.44       0.00       1.04       3.55       2.20       0.00       1.87        0.00     0.01   0.290
  EZG_366                    6.44       0.00       1.04       3.55       2.19       0.00       1.86        0.00     0.01   0.290
  EZG_18259                  6.44       0.00       1.04       3.55       2.19       0.00       1.86        0.00     0.01   0.290
  EZG_18258                  6.44       0.00       1.02       3.55       2.22       0.00       1.88        0.00     0.00   0.293
  EZG_346                    6.44       0.00       1.02       3.61       2.14       0.00       1.82        0.01     0.01   0.283
  EZG_348                    6.44       0.00       1.02       3.61       2.15       0.00       1.83        0.00     0.01   0.284
  
  
  ******************
  Node Depth Summary
  ******************
  
  ---------------------------------------------------------------------------------
                                 Average  Maximum  Maximum  Time of Max    Reported
                                   Depth    Depth      HGL   Occurrence   Max Depth
  Node                 Type       Meters   Meters   Meters  days hr:min      Meters
  ---------------------------------------------------------------------------------
  R0019466             JUNCTION     0.00     0.13    69.58     0  05:51        0.13
  R0019468             JUNCTION     0.00     0.13    69.44     0  05:52        0.13
  R0019831             JUNCTION     0.00     0.07    69.24     0  05:50        0.07
  R0019825             JUNCTION     0.00     0.11    68.95     0  05:51        0.11
  R0019843             JUNCTION     0.00     0.18    67.81     0  05:56        0.18
  R0019368             JUNCTION     0.00     0.26    67.05     0  05:56        0.26
  R0019369             JUNCTION     0.00     0.20    66.79     0  05:56        0.20
  R0019370             JUNCTION     0.00     0.17    66.07     0  05:57        0.17
  R0019345             JUNCTION     0.00     0.13    70.03     0  05:52        0.13
  R0019346             JUNCTION     0.00     0.11    69.91     0  05:52        0.11
  R0043600             JUNCTION     0.00     0.13    69.80     0  05:54        0.13
  R0019203             JUNCTION     0.00     0.14    69.68     0  05:54        0.14
  R0043594             JUNCTION     0.00     0.11    69.84     0  05:51        0.11
  R0021458             JUNCTION     0.00     0.14    69.79     0  05:53        0.14
  R0019202             JUNCTION     0.00     0.12    69.70     0  05:54        0.12
  R0019373             JUNCTION     0.00     0.08    69.75     0  05:50        0.08
  R0019254             JUNCTION     0.00     0.12    70.16     0  05:51        0.11
  R0019716             JUNCTION     0.00     0.16    69.17     0  05:55        0.16
  R0019946             JUNCTION     0.00     0.26    68.88     0  05:55        0.26
  R0013935             JUNCTION     0.00     0.07    68.90     0  05:50        0.07
  R0019939             JUNCTION     0.00     0.10    68.67     0  05:51        0.10
  R0019944             JUNCTION     0.00     0.15    68.43     0  05:56        0.15
  R0043703             JUNCTION     0.00     0.18    68.78     0  05:56        0.18
  R0019945             JUNCTION     0.00     0.19    68.59     0  05:56        0.19
  R0039621             JUNCTION     0.00     0.00    69.57     0  05:52        0.00
  R0019838             JUNCTION     0.00     0.11    69.57     0  05:51        0.11
  R0039606             JUNCTION     0.00     0.12    69.71     0  05:54        0.12
  R0019204             JUNCTION     0.00     0.00    69.91     0  00:00        0.00
  R0019205             JUNCTION     0.00     0.00    69.62     0  00:00        0.00
  R0019849             JUNCTION     0.00     0.12    68.64     0  05:52        0.12
  R0019371             JUNCTION     0.00     0.00    70.41     0  00:00        0.00
  R0019718             JUNCTION     0.00     0.21    69.63     0  05:55        0.21
  R0021442             JUNCTION     0.00     0.15    70.20     0  05:51        0.15
  R0019247             JUNCTION     0.00     0.15    70.03     0  05:52        0.15
  R0019719             JUNCTION     0.00     0.12    69.80     0  05:53        0.12
  R0019767             JUNCTION     0.00     0.18    64.91     0  05:57        0.18
  R0019768             JUNCTION     0.00     0.15    63.92     0  05:57        0.15
  R0021453             JUNCTION     0.00     0.05    70.00     0  05:50        0.05
  R0019839             JUNCTION     0.00     0.10    69.49     0  05:51        0.10
  R0019717             JUNCTION     0.00     0.17    69.51     0  05:55        0.17
  R0019252             JUNCTION     0.00     0.09    70.28     0  05:50        0.09
  R0019721             JUNCTION     0.00     0.10    69.97     0  05:51        0.10
  R0019942             JUNCTION     0.00     0.09    68.74     0  05:51        0.09
  R0019206             JUNCTION     0.00     0.00    69.07     0  00:00        0.00
  R0019840             JUNCTION     0.00     0.09    69.06     0  05:52        0.09
  R0043702             JUNCTION     0.00     0.13    68.83     0  05:52        0.13
  R0019723             JUNCTION     0.00     0.07    70.15     0  05:50        0.07
  R0019724             JUNCTION     0.00     0.04    70.20     0  05:50        0.04
  R0021433             JUNCTION     0.00     0.08    70.47     0  05:50        0.08
  R0021435             JUNCTION     0.00     0.11    70.29     0  05:51        0.11
  R0019769             OUTFALL      0.00     0.15    63.53     0  05:57        0.15
  
  
  *******************
  Node Inflow Summary
  *******************
  
  -------------------------------------------------------------------------------------------------
                                  Maximum  Maximum                  Lateral       Total        Flow
                                  Lateral    Total  Time of Max      Inflow      Inflow     Balance
                                   Inflow   Inflow   Occurrence      Volume      Volume       Error
  Node                 Type           CMS      CMS  days hr:min    10^6 ltr    10^6 ltr     Percent
  -------------------------------------------------------------------------------------------------
  R0019466             JUNCTION     0.012    0.021     0  05:50     0.00767      0.0143      -0.096
  R0019468             JUNCTION     0.008    0.027     0  05:51     0.00446      0.0188       0.093
  R0019831             JUNCTION     0.010    0.010     0  05:50     0.00602     0.00602      -0.309
  R0019825             JUNCTION     0.010    0.019     0  05:50     0.00604      0.0121      -0.043
  R0019843             JUNCTION     0.000    0.220     0  05:55           0       0.189      -0.046
  R0019368             JUNCTION     0.000    0.219     0  05:56           0        0.19       0.001
  R0019369             JUNCTION     0.000    0.218     0  05:56           0        0.19       0.006
  R0019370             JUNCTION     0.000    0.218     0  05:56           0        0.19       0.009
  R0019345             JUNCTION     0.000    0.017     0  05:51           0      0.0118       0.361
  R0019346             JUNCTION     0.002    0.029     0  05:52    0.000754      0.0198       0.122
  R0043600             JUNCTION     0.000    0.031     0  05:53           0      0.0229       0.394
  R0019203             JUNCTION     0.004    0.065     0  05:54     0.00166      0.0512      -0.049
  R0043594             JUNCTION     0.015    0.023     0  05:50      0.0109      0.0156      -0.847
  R0021458             JUNCTION     0.013    0.032     0  05:51     0.00851      0.0242      -0.040
  R0019202             JUNCTION     0.005    0.033     0  05:54     0.00253      0.0268      -0.062
  R0019373             JUNCTION     0.011    0.011     0  05:50     0.00666     0.00666      -0.149
  R0019254             JUNCTION     0.009    0.018     0  05:50     0.00542      0.0118      -0.194
  R0019716             JUNCTION     0.013    0.127     0  05:55     0.00845       0.106      -0.117
  R0019946             JUNCTION     0.000    0.127     0  05:55           0       0.106       0.148
  R0013935             JUNCTION     0.009    0.009     0  05:50     0.00517     0.00517      -0.329
  R0019939             JUNCTION     0.004    0.012     0  05:50     0.00186     0.00704      -0.061
  R0019944             JUNCTION     0.009    0.159     0  05:56      0.0048       0.135      -0.006
  R0043703             JUNCTION     0.010    0.133     0  05:55     0.00589       0.111      -0.020
  R0019945             JUNCTION     0.000    0.155     0  05:56           0       0.131       0.013
  R0039621             JUNCTION     0.000    0.000     0  05:52           0    5.03e-06       0.800 ltr
  R0019838             JUNCTION     0.016    0.016     0  05:50      0.0118      0.0119      -0.020
  R0039606             JUNCTION     0.000    0.031     0  05:53           0      0.0243       0.377
  R0019204             JUNCTION     0.000    0.000     0  00:00           0           0       0.000 ltr
  R0019205             JUNCTION     0.000    0.000     0  00:00           0           0       0.000 ltr
  R0019849             JUNCTION     0.000    0.029     0  05:51           0      0.0191       0.044
  R0019371             JUNCTION     0.000    0.000     0  00:00           0           0       0.000 ltr
  R0019718             JUNCTION     0.012    0.073     0  05:54     0.00723      0.0585      -0.709
  R0021442             JUNCTION     0.012    0.027     0  05:51     0.00842      0.0191      -0.086
  R0019247             JUNCTION     0.007    0.032     0  05:52     0.00372      0.0229      -0.304
  R0019719             JUNCTION     0.007    0.034     0  05:52     0.00392      0.0237      -0.042
  R0019767             JUNCTION     0.000    0.218     0  05:57           0        0.19       0.002
  R0019768             JUNCTION     0.000    0.218     0  05:57           0        0.19       0.034
  R0021453             JUNCTION     0.008    0.008     0  05:50     0.00471     0.00471       0.931
  R0019839             JUNCTION     0.016    0.029     0  05:51      0.0117      0.0236      -0.119
  R0019717             JUNCTION     0.019    0.118     0  05:55      0.0147      0.0973       0.145
  R0019252             JUNCTION     0.011    0.011     0  05:50     0.00637     0.00637      -0.331
  R0019721             JUNCTION     0.004    0.013     0  05:50     0.00163     0.00725       0.067
  R0019942             JUNCTION     0.000    0.018     0  05:51           0      0.0121       0.194
  R0019206             JUNCTION     0.000    0.000     0  00:00           0           0       0.000 ltr
  R0019840             JUNCTION     0.000    0.055     0  05:52           0      0.0424       0.071
  R0043702             JUNCTION     0.016    0.069     0  05:52      0.0117      0.0541      -0.019
  R0019723             JUNCTION     0.008    0.011     0  05:50     0.00443     0.00559      -0.410
  R0019724             JUNCTION     0.003    0.003     0  05:50     0.00115     0.00115      -0.440
  R0021433             JUNCTION     0.011    0.011     0  05:50     0.00663     0.00663      -0.336
  R0021435             JUNCTION     0.008    0.017     0  05:50     0.00407      0.0107       0.151
  R0019769             OUTFALL      0.000    0.218     0  05:57           0       0.189       0.000
  
  
  **********************
  Node Surcharge Summary
  **********************
  
  No nodes were surcharged.
  
  
  *********************
  Node Flooding Summary
  *********************
  
  No nodes were flooded.
  
  
  ***********************
  Outfall Loading Summary
  ***********************
  
  -----------------------------------------------------------
                         Flow       Avg       Max       Total
                         Freq      Flow      Flow      Volume
  Outfall Node           Pcnt       CMS       CMS    10^6 ltr
  -----------------------------------------------------------
  R0019769               3.75     0.018     0.218       0.189
  -----------------------------------------------------------
  System                 3.75     0.018     0.218       0.189
  
  
  ********************
  Link Flow Summary
  ********************
  
  -----------------------------------------------------------------------------
                                 Maximum  Time of Max   Maximum    Max/    Max/
                                  |Flow|   Occurrence   |Veloc|    Full    Full
  Link                 Type          CMS  days hr:min     m/sec    Flow   Depth
  -----------------------------------------------------------------------------
  H0014431             CONDUIT     0.021     0  05:51      0.73    0.38    0.43
  H0014433             CONDUIT     0.009     0  05:50      0.54    0.12    0.31
  H0014352             CONDUIT     0.219     0  05:56      1.80    0.09    0.25
  H0014373             CONDUIT     0.218     0  05:56      2.36    0.10    0.20
  H0017981             CONDUIT     0.017     0  05:52      0.69    0.47    0.37
  H0017755             CONDUIT     0.030     0  05:54      0.88    0.25    0.32
  H0017791             CONDUIT     0.021     0  05:51      0.44    0.03    0.13
  H0017357             CONDUIT     0.000     0  00:00      0.00    0.00    0.13
  H0018216             CONDUIT     0.017     0  05:51      0.68    0.31    0.40
  H0016792             CONDUIT     0.127     0  05:55      1.10    0.07    0.24
  H0019507             CONDUIT     0.008     0  05:50      0.53    0.12    0.29
  H0019998             CONDUIT     0.159     0  05:56      1.94    0.06    0.19
  H0019576             CONDUIT     0.133     0  05:56      1.41    0.09    0.21
  H0020087             CONDUIT     0.000     0  05:52      0.01    0.00    0.11
  H0020211             CONDUIT     0.127     0  05:56      1.04    0.32    0.25
  H0018982             CONDUIT     0.031     0  05:53      0.55    0.05    0.14
  H0018753             CONDUIT     0.010     0  05:50      0.47    0.14    0.34
  H0018845             CONDUIT     0.000     0  00:00      0.00    0.00    0.00
  H0018863             CONDUIT     0.011     0  05:51      0.49    0.26    0.37
  H0019156             CONDUIT     0.000     0  00:00      0.00    0.00    0.00
  H0018929             CONDUIT     0.065     0  05:54      0.77    0.06    0.20
  H0018440             CONDUIT     0.026     0  05:52      0.79    0.47    0.48
  H0018456             CONDUIT     0.028     0  05:52      0.94    0.17    0.30
  H0018968             CONDUIT     0.218     0  05:57      2.68    0.08    0.19
  H0022036             CONDUIT     0.008     0  05:50      0.48    0.01    0.07
  H0021806             CONDUIT     0.031     0  05:53      0.81    0.27    0.34
  H0022111             CONDUIT     0.015     0  05:52      0.48    0.10    0.21
  H0021440             CONDUIT     0.118     0  05:55      1.46    0.08    0.18
  H0021704             CONDUIT     0.072     0  05:55      0.79    0.14    0.20
  H0020521             CONDUIT     0.010     0  05:50      0.47    0.19    0.34
  H0020755             CONDUIT     0.011     0  05:51      0.48    0.12    0.26
  H0020530             CONDUIT     0.218     0  05:56      1.70    0.19    0.26
  H0020618             CONDUIT     0.155     0  05:56      1.84    0.10    0.19
  H0021163             CONDUIT     0.018     0  05:51      0.88    0.30    0.33
  H0020497             CONDUIT     0.000     0  00:00      0.00    0.00    0.30
  H0024325             CONDUIT     0.029     0  05:52      1.11    0.09    0.19
  H0023585             CONDUIT     0.068     0  05:53      1.61    0.16    0.27
  H0024098             CONDUIT     0.028     0  05:51      1.09    0.33    0.49
  H0024235             CONDUIT     0.033     0  05:53      0.89    0.13    0.24
  H0024282             CONDUIT     0.000     0  00:00      0.00    0.00    0.00
  H0024308             CONDUIT     0.218     0  05:57      3.01    0.06    0.17
  H0024498             CONDUIT     0.026     0  05:52      0.90    0.40    0.42
  H0026990             CONDUIT     0.010     0  05:50      0.56    0.07    0.21
  H0041650             CONDUIT     0.033     0  05:54      0.56    0.04    0.15
  H0041011             CONDUIT     0.018     0  05:51      0.84    0.18    0.34
  H0045103             CONDUIT     0.030     0  05:54      0.57    0.04    0.14
  H0045104             CONDUIT     0.218     0  05:57      2.52    0.08    0.19
  H0045105             CONDUIT     0.003     0  05:50      0.28    0.04    0.19
  H0045106             CONDUIT     0.055     0  05:52      1.65    0.07    0.23
  H0045107             CONDUIT     0.010     0  05:50      0.56    0.17    0.32
  H0045108             CONDUIT     0.016     0  05:51      0.55    0.28    0.42
  
  
  ***************************
  Flow Classification Summary
  ***************************
  
  -------------------------------------------------------------------------------------
                      Adjusted    ---------- Fraction of Time in Flow Class ---------- 
                       /Actual         Up    Down  Sub   Sup   Up    Down  Norm  Inlet 
  Conduit               Length    Dry  Dry   Dry   Crit  Crit  Crit  Crit  Ltd   Ctrl  
  -------------------------------------------------------------------------------------
  H0014431                1.00   0.08  0.00  0.00  0.92  0.00  0.00  0.00  0.92  0.00
  H0014433                1.00   0.08  0.00  0.00  0.92  0.00  0.00  0.00  0.92  0.00
  H0014352                1.00   0.08  0.00  0.00  0.91  0.02  0.00  0.00  0.92  0.00
  H0014373                1.00   0.08  0.00  0.00  0.89  0.03  0.00  0.00  0.88  0.00
  H0017981                1.00   0.08  0.00  0.00  0.00  0.00  0.00  0.92  0.00  0.00
  H0017755                1.00   0.08  0.00  0.00  0.00  0.00  0.00  0.92  0.00  0.00
  H0017791                1.00   0.08  0.00  0.00  0.92  0.00  0.00  0.00  0.92  0.00
  H0017357                1.00   0.08  0.92  0.00  0.00  0.00  0.00  0.00  0.00  0.00
  H0018216                1.00   0.08  0.89  0.00  0.04  0.00  0.00  0.00  0.92  0.00
  H0016792                1.00   0.08  0.88  0.00  0.04  0.00  0.00  0.00  0.92  0.00
  H0019507                1.00   0.08  0.00  0.00  0.92  0.00  0.00  0.00  0.92  0.00
  H0019998                1.00   0.08  0.00  0.00  0.89  0.03  0.00  0.00  0.05  0.00
  H0019576                1.00   0.08  0.00  0.00  0.91  0.01  0.00  0.00  0.05  0.00
  H0020087                1.00   0.08  0.92  0.00  0.01  0.00  0.00  0.00  0.92  0.00
  H0020211                1.00   0.08  0.00  0.00  0.92  0.00  0.00  0.00  0.88  0.00
  H0018982                1.00   0.08  0.00  0.00  0.92  0.00  0.00  0.00  0.90  0.00
  H0018753                1.00   0.08  0.00  0.00  0.92  0.00  0.00  0.00  0.92  0.00
  H0018845                1.00   1.00  0.00  0.00  0.00  0.00  0.00  0.00  0.00  0.00
  H0018863                1.00   0.08  0.00  0.00  0.92  0.00  0.00  0.00  0.92  0.00
  H0019156                1.00   1.00  0.00  0.00  0.00  0.00  0.00  0.00  0.00  0.00
  H0018929                1.00   0.08  0.88  0.00  0.04  0.00  0.00  0.00  0.92  0.00
  H0018440                1.00   0.08  0.00  0.00  0.92  0.00  0.00  0.00  0.92  0.00
  H0018456                1.00   0.08  0.00  0.00  0.92  0.00  0.00  0.00  0.92  0.00
  H0018968                1.00   0.08  0.00  0.00  0.89  0.03  0.00  0.00  0.89  0.00
  H0022036                1.00   0.08  0.00  0.00  0.00  0.00  0.00  0.92  0.00  0.00
  H0021806                1.00   0.08  0.89  0.00  0.04  0.00  0.00  0.00  0.92  0.00
  H0022111                1.00   0.08  0.00  0.00  0.92  0.00  0.00  0.00  0.00  0.00
  H0021440                1.00   0.08  0.00  0.00  0.91  0.01  0.00  0.00  0.01  0.00
  H0021704                1.00   0.08  0.00  0.00  0.00  0.00  0.00  0.92  0.00  0.00
  H0020521                1.00   0.08  0.00  0.00  0.92  0.00  0.00  0.00  0.92  0.00
  H0020755                1.00   0.08  0.89  0.00  0.03  0.00  0.00  0.00  0.92  0.00
  H0020530                1.00   0.08  0.00  0.00  0.91  0.01  0.00  0.00  0.00  0.00
  H0020618                1.00   0.08  0.00  0.00  0.90  0.02  0.00  0.00  0.88  0.00
  H0021163                1.00   0.08  0.00  0.00  0.92  0.00  0.00  0.00  0.90  0.00
  H0020497                1.20   0.08  0.92  0.00  0.00  0.00  0.00  0.00  0.00  0.00
  H0024325                1.00   0.08  0.00  0.00  0.91  0.02  0.00  0.00  0.90  0.00
  H0023585                1.00   0.08  0.00  0.00  0.00  0.00  0.00  0.92  0.00  0.00
  H0024098                1.00   0.08  0.89  0.00  0.04  0.00  0.00  0.00  0.92  0.00
  H0024235                1.00   0.08  0.00  0.00  0.00  0.00  0.00  0.92  0.00  0.00
  H0024282                1.00   1.00  0.00  0.00  0.00  0.00  0.00  0.00  0.00  0.00
  H0024308                1.00   0.08  0.00  0.00  0.88  0.05  0.00  0.00  0.01  0.00
  H0024498                1.00   0.08  0.00  0.00  0.00  0.00  0.00  0.92  0.00  0.00
  H0026990                1.00   0.08  0.00  0.00  0.92  0.00  0.00  0.00  0.92  0.00
  H0041650                1.00   0.96  0.01  0.00  0.03  0.00  0.00  0.00  0.92  0.00
  H0041011                1.00   0.08  0.00  0.00  0.92  0.00  0.00  0.00  0.92  0.00
  H0045103                1.00   0.08  0.00  0.00  0.92  0.00  0.00  0.00  0.91  0.00
  H0045104                1.00   0.08  0.00  0.00  0.89  0.04  0.00  0.00  0.05  0.00
  H0045105                1.00   0.08  0.00  0.00  0.92  0.00  0.00  0.00  0.92  0.00
  H0045106                1.00   0.08  0.00  0.00  0.90  0.02  0.00  0.00  0.92  0.00
  H0045107                1.00   0.08  0.00  0.00  0.92  0.00  0.00  0.00  0.92  0.00
  H0045108                1.00   0.08  0.00  0.00  0.92  0.00  0.00  0.00  0.92  0.00
  
  
  *************************
  Conduit Surcharge Summary
  *************************
  
  No conduits were surcharged.
  

  Analysis begun on:  Fri Mar 22 15:54:30 2024
  Analysis ended on:  Fri Mar 22 15:54:39 2024
  Total elapsed time: 00:00:09