
  EPA STORM WATER MANAGEMENT MODEL - VERSION 5.2 (Build 5.2.4)
  PYSWMM TOOLKIT API - VERSION v1.0 (2023-11-27)
  ------------------------------------------------------------

  Gievenbeck_e2_T30D45 
  
  ****************
  Analysis Options
  ****************
  Flow Units ............... CMS
  Process Models:
    Rainfall/Runoff ........ YES
    RDII ................... NO
    Snowmelt ............... NO
    Groundwater ............ NO
    Flow Routing ........... YES
    Ponding Allowed ........ NO
    Water Quality .......... NO
  Infiltration Method ...... HORTON
  Flow Routing Method ...... DYNWAVE
  Surcharge Method ......... SLOT
  Starting Date ............ 01/01/2024 00:00:00
  Ending Date .............. 01/04/2024 04:00:00
  Antecedent Dry Days ...... 14.0
  Report Time Step ......... 00:01:00
  Wet Time Step ............ 00:01:00
  Dry Time Step ............ 00:01:00
  Routing Time Step ........ 1.00 sec
  Variable Time Step ....... YES
  Maximum Trials ........... 8
  Number of Threads ........ 1
  Head Tolerance ........... 0.001500 m
  
  
  **************************        Volume         Depth
  Runoff Quantity Continuity     hectare-m            mm
  **************************     ---------       -------
  Total Precipitation ......         0.333        32.890
  Evaporation Loss .........         0.010         0.967
  Infiltration Loss ........         0.144        14.202
  Surface Runoff ...........         0.180        17.790
  Final Storage ............         0.000         0.000
  Continuity Error (%) .....        -0.209
  
  
  **************************        Volume        Volume
  Flow Routing Continuity        hectare-m      10^6 ltr
  **************************     ---------     ---------
  Dry Weather Inflow .......         0.000         0.000
  Wet Weather Inflow .......         0.180         1.801
  Groundwater Inflow .......         0.000         0.000
  RDII Inflow ..............         0.000         0.000
  External Inflow ..........         0.000         0.000
  External Outflow .........         0.176         1.761
  Flooding Loss ............         0.004         0.041
  Evaporation Loss .........         0.000         0.000
  Exfiltration Loss ........         0.000         0.000
  Initial Stored Volume ....         0.000         0.000
  Final Stored Volume ......         0.000         0.000
  Continuity Error (%) .....        -0.078
  
  
  *************************
  Highest Continuity Errors
  *************************
  Node R0019206 (11.90%)
  Node R0019373 (1.52%)
  Node R0019718 (-1.30%)
  
  
  ***************************
  Time-Step Critical Elements
  ***************************
  None
  
  
  ********************************
  Highest Flow Instability Indexes
  ********************************
  All links are stable.
  
  
  *********************************
  Most Frequent Nonconverging Nodes
  *********************************
  Convergence obtained at all time steps.
  
  
  *************************
  Routing Time Step Summary
  *************************
  Minimum Time Step           :     0.13 sec
  Average Time Step           :     1.00 sec
  Maximum Time Step           :     1.00 sec
  % of Time in Steady State   :     0.00
  Average Iterations per Step :     2.00
  % of Steps Not Converging   :     0.00
  Time Step Frequencies       :
      1.000 -  0.871 sec      :   100.00 %
      0.871 -  0.758 sec      :     0.00 %
      0.758 -  0.660 sec      :     0.00 %
      0.660 -  0.574 sec      :     0.00 %
      0.574 -  0.500 sec      :     0.00 %
  
  
  ***************************
  Subcatchment Runoff Summary
  ***************************
  
  ------------------------------------------------------------------------------------------------------------------------------
                            Total      Total      Total      Total     Imperv       Perv      Total       Total     Peak  Runoff
                           Precip      Runon       Evap      Infil     Runoff     Runoff     Runoff      Runoff   Runoff   Coeff
  Subcatchment                 mm         mm         mm         mm         mm         mm         mm    10^6 ltr      CMS
  ------------------------------------------------------------------------------------------------------------------------------
  EZG_368                   32.89       0.00       0.96      14.31      15.54       4.48      17.69        0.07     0.13   0.538
  EZG_392                   32.89       0.00       0.96      14.19      15.55       4.60      17.82        0.06     0.10   0.542
  EZG_352                   32.89       0.00       0.97      14.50      15.53       4.28      17.48        0.10     0.17   0.532
  EZG_372                   32.89       0.00       0.94      13.83      15.57       4.97      18.21        0.02     0.05   0.554
  EZG_416                   32.89       0.00       0.95      14.14      15.55       4.65      17.87        0.05     0.09   0.543
  EZG_388                   32.89       0.00       0.96      14.36      15.54       4.42      17.63        0.08     0.14   0.536
  EZG_394                   32.89       0.00       0.95      14.12      15.55       4.67      17.89        0.05     0.09   0.544
  EZG_400                   32.89       0.00       0.95      14.08      15.55       4.71      17.93        0.05     0.08   0.545
  EZG_390                   32.89       0.00       0.96      14.18      15.55       4.61      17.83        0.06     0.10   0.542
  EZG_350                   32.89       0.00       0.96      14.36      15.54       4.42      17.63        0.08     0.14   0.536
  EZG_370                   32.89       0.00       0.96      14.24      15.55       4.55      17.76        0.06     0.11   0.540
  EZG_398                   32.89       0.00       0.94      13.73      15.58       5.08      18.32        0.02     0.04   0.557
  EZG_382                   32.89       0.00       0.94      13.69      15.58       5.12      18.36        0.02     0.03   0.558
  EZG_374                   32.89       0.00       1.15      11.45      18.64       4.52      20.36        0.08     0.13   0.619
  EZG_412                   32.89       0.00       0.93      13.47      15.60       5.36      18.62        0.01     0.02   0.566
  EZG_344                   32.89       0.00       0.95      14.08      15.55       4.72      17.94        0.05     0.08   0.545
  EZG_376                   32.89       0.00       0.95      13.98      15.56       4.82      18.05        0.04     0.07   0.549
  EZG_356                   32.89       0.00       0.97      14.55      15.53       4.23      17.43        0.11     0.18   0.530
  EZG_386                   32.89       0.00       0.97      14.68      15.52       4.10      17.30        0.14     0.22   0.526
  EZG_380                   32.89       0.00       0.96      14.28      15.54       4.51      17.72        0.07     0.12   0.539
  EZG_378                   32.89       0.00       0.96      14.22      15.55       4.57      17.79        0.06     0.11   0.541
  EZG_414                   32.89       0.00       0.94      13.69      15.58       5.12      18.37        0.02     0.03   0.558
  EZG_402                   32.89       0.00       0.96      14.19      15.55       4.60      17.81        0.06     0.10   0.542
  EZG_358                   32.89       0.00       0.97      14.54      15.53       4.24      17.44        0.11     0.18   0.530
  EZG_364                   32.89       0.00       0.97      14.54      15.53       4.24      17.44        0.11     0.18   0.530
  EZG_410                   32.89       0.00       0.95      14.00      15.56       4.80      18.02        0.04     0.07   0.548
  EZG_366                   32.89       0.00       0.95      14.05      15.56       4.74      17.96        0.04     0.08   0.546
  EZG_18259                 32.89       0.00       0.95      14.05      15.56       4.74      17.97        0.04     0.08   0.546
  EZG_18258                 32.89       0.00       0.94      13.59      15.59       5.23      18.48        0.01     0.02   0.562
  EZG_346                   32.89       0.00       0.94      14.53      15.24       4.54      17.49        0.06     0.11   0.532
  EZG_348                   32.89       0.00       0.93      14.30      15.25       4.78      17.74        0.04     0.07   0.539
  
  
  ******************
  Node Depth Summary
  ******************
  
  ---------------------------------------------------------------------------------
                                 Average  Maximum  Maximum  Time of Max    Reported
                                   Depth    Depth      HGL   Occurrence   Max Depth
  Node                 Type       Meters   Meters   Meters  days hr:min      Meters
  ---------------------------------------------------------------------------------
  R0019466             JUNCTION     0.00     1.66    71.11     0  02:20        1.63
  R0019468             JUNCTION     0.00     1.60    70.91     0  02:20        1.52
  R0019831             JUNCTION     0.00     1.66    70.83     0  02:20        1.66
  R0019825             JUNCTION     0.00     1.50    70.34     0  02:18        1.50
  R0019843             JUNCTION     0.00     1.47    69.10     0  02:20        1.19
  R0019368             JUNCTION     0.01     1.55    68.34     0  02:20        1.36
  R0019369             JUNCTION     0.00     0.76    67.35     0  02:21        0.76
  R0019370             JUNCTION     0.00     0.61    66.51     0  02:21        0.61
  R0019345             JUNCTION     0.00     1.17    71.07     0  02:20        1.15
  R0019346             JUNCTION     0.00     0.94    70.74     0  02:20        0.93
  R0043600             JUNCTION     0.00     0.63    70.30     0  02:20        0.62
  R0019203             JUNCTION     0.00     0.63    70.17     0  02:20        0.63
  R0043594             JUNCTION     0.00     0.49    70.22     0  02:20        0.49
  R0021458             JUNCTION     0.00     0.56    70.21     0  02:21        0.56
  R0019202             JUNCTION     0.00     0.60    70.18     0  02:20        0.60
  R0019373             JUNCTION     0.00     1.35    71.02     0  02:20        1.32
  R0019254             JUNCTION     0.00     1.94    71.98     0  02:20        1.94
  R0019716             JUNCTION     0.00     0.77    69.78     0  02:20        0.77
  R0019946             JUNCTION     0.01     1.00    69.62     0  02:20        0.99
  R0013935             JUNCTION     0.00     1.62    70.45     0  02:20        1.61
  R0019939             JUNCTION     0.00     1.57    70.14     0  02:20        1.55
  R0019944             JUNCTION     0.00     0.81    69.09     0  02:21        0.80
  R0043703             JUNCTION     0.00     0.75    69.35     0  02:21        0.74
  R0019945             JUNCTION     0.00     0.79    69.19     0  02:21        0.78
  R0039621             JUNCTION     0.00     1.05    70.62     0  02:20        0.88
  R0019838             JUNCTION     0.00     1.17    70.63     0  02:20        1.01
  R0039606             JUNCTION     0.00     0.59    70.18     0  02:20        0.59
  R0019204             JUNCTION     0.00     0.00    69.91     0  00:00        0.00
  R0019205             JUNCTION     0.00     0.00    69.62     0  00:00        0.00
  R0019849             JUNCTION     0.00     1.29    69.81     0  02:20        1.26
  R0019371             JUNCTION     0.00     0.00    70.41     0  00:00        0.00
  R0019718             JUNCTION     0.00     0.72    70.14     0  02:20        0.71
  R0021442             JUNCTION     0.01     2.05    72.10     0  02:17        2.05
  R0019247             JUNCTION     0.00     1.14    71.02     0  02:20        1.14
  R0019719             JUNCTION     0.00     0.72    70.40     0  02:20        0.72
  R0019767             JUNCTION     0.00     0.65    65.38     0  02:21        0.64
  R0019768             JUNCTION     0.00     0.54    64.31     0  02:21        0.53
  R0021453             JUNCTION     0.00     0.27    70.22     0  02:20        0.25
  R0019839             JUNCTION     0.00     1.21    70.60     0  02:20        1.01
  R0019717             JUNCTION     0.00     0.67    70.01     0  02:20        0.66
  R0019252             JUNCTION     0.00     1.94    72.13     0  02:18        1.94
  R0019721             JUNCTION     0.00     1.02    70.89     0  02:20        0.98
  R0019942             JUNCTION     0.00     1.26    69.91     0  02:20        1.24
  R0019206             JUNCTION     0.00     0.01    69.08     0  02:20        0.00
  R0019840             JUNCTION     0.00     1.34    70.31     0  02:20        1.11
  R0043702             JUNCTION     0.00     1.52    70.22     0  02:20        1.29
  R0019723             JUNCTION     0.00     0.91    70.99     0  02:20        0.88
  R0019724             JUNCTION     0.00     0.85    71.01     0  02:20        0.82
  R0021433             JUNCTION     0.00     2.15    72.54     0  02:17        2.15
  R0021435             JUNCTION     0.00     2.11    72.29     0  02:17        2.11
  R0019769             OUTFALL      0.00     0.54    63.92     0  02:21        0.53
  
  
  *******************
  Node Inflow Summary
  *******************
  
  -------------------------------------------------------------------------------------------------
                                  Maximum  Maximum                  Lateral       Total        Flow
                                  Lateral    Total  Time of Max      Inflow      Inflow     Balance
                                   Inflow   Inflow   Occurrence      Volume      Volume       Error
  Node                 Type           CMS      CMS  days hr:min    10^6 ltr    10^6 ltr     Percent
  -------------------------------------------------------------------------------------------------
  R0019466             JUNCTION     0.125    0.125     0  02:20      0.0731       0.105       0.080
  R0019468             JUNCTION     0.078    0.156     0  02:19       0.043        0.14      -0.043
  R0019831             JUNCTION     0.101    0.101     0  02:20      0.0577      0.0577       0.128
  R0019825             JUNCTION     0.102    0.201     0  02:20      0.0579       0.115       0.188
  R0019843             JUNCTION     0.000    2.305     0  02:20           0        1.76      -0.020
  R0019368             JUNCTION     0.000    2.236     0  02:20           0        1.76      -0.028
  R0019369             JUNCTION     0.000    2.257     0  02:20           0        1.76      -0.031
  R0019370             JUNCTION     0.000    2.231     0  02:21           0        1.76       0.004
  R0019345             JUNCTION     0.000    0.158     0  02:19           0        0.11       0.046
  R0019346             JUNCTION     0.016    0.286     0  02:20     0.00743       0.187       0.015
  R0043600             JUNCTION     0.000    0.214     0  02:20           0       0.192      -0.091
  R0019203             JUNCTION     0.033    0.679     0  02:20      0.0162       0.502      -0.007
  R0043594             JUNCTION     0.171    0.223     0  02:19       0.103       0.149      -0.089
  R0021458             JUNCTION     0.137    0.304     0  02:20      0.0809        0.23      -0.002
  R0019202             JUNCTION     0.047    0.447     0  02:20      0.0246       0.293      -0.411
  R0019373             JUNCTION     0.111    0.150     0  02:20      0.0637      0.0721       1.539
  R0019254             JUNCTION     0.092    0.164     0  02:19      0.0521        0.11       0.037
  R0019716             JUNCTION     0.137    1.421     0  02:20      0.0804        1.02      -0.019
  R0019946             JUNCTION     0.000    1.376     0  02:20           0        1.02       0.010
  R0013935             JUNCTION     0.089    0.089     0  02:20      0.0496      0.0496       0.105
  R0019939             JUNCTION     0.036    0.119     0  02:20      0.0181      0.0677      -0.120
  R0019944             JUNCTION     0.083    1.713     0  02:20      0.0462        1.29       0.027
  R0043703             JUNCTION     0.099    1.453     0  02:20      0.0564        1.07       0.005
  R0019945             JUNCTION     0.000    1.657     0  02:20           0        1.24      -0.006
  R0039621             JUNCTION     0.000    0.078     0  02:20           0     0.00349      -3.481
  R0019838             JUNCTION     0.183    0.183     0  02:20       0.112       0.115      -0.073
  R0039606             JUNCTION     0.000    0.297     0  02:21           0        0.23       0.068
  R0019204             JUNCTION     0.000    0.000     0  00:00           0           0       0.000 ltr
  R0019205             JUNCTION     0.000    0.000     0  00:00           0           0       0.000 ltr
  R0019849             JUNCTION     0.000    0.211     0  02:20           0        0.17       0.017
  R0019371             JUNCTION     0.000    0.000     0  00:00           0           0       0.000 ltr
  R0019718             JUNCTION     0.119    0.773     0  02:20       0.069       0.571      -1.281
  R0021442             JUNCTION     0.134    0.206     0  02:20      0.0772       0.163       0.043
  R0019247             JUNCTION     0.066    0.215     0  02:20       0.036       0.192       0.103
  R0019719             JUNCTION     0.070    0.348     0  02:20      0.0378       0.225       0.652
  R0019767             JUNCTION     0.000    2.240     0  02:21           0        1.76      -0.006
  R0019768             JUNCTION     0.000    2.257     0  02:21           0        1.76       0.011
  R0021453             JUNCTION     0.082    0.082     0  02:20      0.0454      0.0454      -0.015
  R0019839             JUNCTION     0.181    0.324     0  02:20        0.11       0.222       0.016
  R0019717             JUNCTION     0.222    1.302     0  02:20       0.138        0.94       0.420
  R0019252             JUNCTION     0.107    0.107     0  02:20       0.061       0.061      -0.052
  R0019721             JUNCTION     0.032    0.124     0  02:20       0.016      0.0702       0.168
  R0019942             JUNCTION     0.000    0.123     0  02:18           0       0.102      -0.325
  R0019206             JUNCTION     0.000    0.004     0  02:20           0    8.41e-06       1.000 ltr
  R0019840             JUNCTION     0.000    0.451     0  02:20           0       0.362       0.015
  R0043702             JUNCTION     0.182    0.591     0  02:19       0.111       0.473       0.425
  R0019723             JUNCTION     0.077    0.097     0  02:19      0.0427      0.0541      -0.319
  R0019724             JUNCTION     0.024    0.027     0  02:19      0.0113      0.0114      -0.409
  R0021433             JUNCTION     0.111    0.111     0  02:20      0.0636      0.0636      -0.111
  R0021435             JUNCTION     0.072    0.143     0  02:20      0.0395      0.0985      -0.128
  R0019769             OUTFALL      0.000    2.268     0  02:21           0        1.76       0.000
  
  
  **********************
  Node Surcharge Summary
  **********************
  
  Surcharging occurs when water rises above the top of the highest conduit.
  ---------------------------------------------------------------------
                                               Max. Height   Min. Depth
                                   Hours       Above Crown    Below Rim
  Node                 Type      Surcharged         Meters       Meters
  ---------------------------------------------------------------------
  R0019466             JUNCTION        0.20          1.364        1.146
  R0019468             JUNCTION        0.19          1.302        1.128
  R0019831             JUNCTION        0.13          1.360        0.000
  R0019825             JUNCTION        0.17          1.200        0.000
  R0019843             JUNCTION        0.04          0.566        2.054
  R0019368             JUNCTION        0.08          0.655        0.395
  R0019345             JUNCTION        0.12          0.873        0.877
  R0019346             JUNCTION        0.08          0.545        1.195
  R0043600             JUNCTION        0.10          0.227        2.353
  R0019373             JUNCTION        0.13          1.052        1.448
  R0019254             JUNCTION        0.15          1.641        0.189
  R0019946             JUNCTION        0.05          0.097        1.423
  R0013935             JUNCTION        0.13          1.320        0.000
  R0019939             JUNCTION        0.20          1.272        0.348
  R0039621             JUNCTION        0.03          0.546        0.514
  R0019838             JUNCTION        0.04          0.667        0.633
  R0019849             JUNCTION        0.22          0.985        0.945
  R0021442             JUNCTION        0.22          1.750        0.000
  R0019247             JUNCTION        0.14          0.740        1.120
  R0019719             JUNCTION        0.04          0.219        1.581
  R0019839             JUNCTION        0.04          0.711        0.939
  R0019252             JUNCTION        0.12          1.640        0.000
  R0019721             JUNCTION        0.08          0.618        0.942
  R0019942             JUNCTION        0.18          0.961        0.689
  R0019840             JUNCTION        0.06          0.843        1.727
  R0043702             JUNCTION        0.08          1.020        1.890
  R0019723             JUNCTION        0.04          0.514        0.806
  R0019724             JUNCTION        0.05          0.553        0.897
  R0021433             JUNCTION        0.16          1.850        0.000
  R0021435             JUNCTION        0.20          1.810        0.000
  
  
  *********************
  Node Flooding Summary
  *********************
  
  Flooding refers to all water that overflows a node, whether it ponds or not.
  --------------------------------------------------------------------------
                                                             Total   Maximum
                                 Maximum   Time of Max       Flood    Ponded
                        Hours       Rate    Occurrence      Volume     Depth
  Node                 Flooded       CMS   days hr:min    10^6 ltr    Meters
  --------------------------------------------------------------------------
  R0019831                0.01     0.002      0  02:20       0.000     0.000
  R0019825                0.06     0.103      0  02:20       0.013     0.000
  R0013935                0.01     0.005      0  02:20       0.000     0.000
  R0021442                0.06     0.057      0  02:20       0.007     0.000
  R0019252                0.03     0.048      0  02:20       0.003     0.000
  R0021433                0.05     0.039      0  02:20       0.005     0.000
  R0021435                0.07     0.071      0  02:20       0.013     0.000
  
  
  ***********************
  Outfall Loading Summary
  ***********************
  
  -----------------------------------------------------------
                         Flow       Avg       Max       Total
                         Freq      Flow      Flow      Volume
  Outfall Node           Pcnt       CMS       CMS    10^6 ltr
  -----------------------------------------------------------
  R0019769               4.40     0.147     2.268       1.761
  -----------------------------------------------------------
  System                 4.40     0.147     2.268       1.761
  
  
  ********************
  Link Flow Summary
  ********************
  
  -----------------------------------------------------------------------------
                                 Maximum  Time of Max   Maximum    Max/    Max/
                                  |Flow|   Occurrence   |Veloc|    Full    Full
  Link                 Type          CMS  days hr:min     m/sec    Flow   Depth
  -----------------------------------------------------------------------------
  H0014431             CONDUIT     0.082     0  02:19      1.16    1.52    1.00
  H0014433             CONDUIT     0.100     0  02:20      1.41    1.28    1.00
  H0014352             CONDUIT     2.236     0  02:20      3.51    0.92    1.00
  H0014373             CONDUIT     2.231     0  02:21      4.33    1.03    0.76
  H0017981             CONDUIT     0.153     0  02:19      2.17    4.33    1.00
  H0017755             CONDUIT     0.213     0  02:20      1.69    1.73    1.00
  H0017791             CONDUIT     0.200     0  02:20      0.70    0.29    0.58
  H0017357             CONDUIT     0.148     0  02:20      2.09    2.36    1.00
  H0018216             CONDUIT     0.158     0  02:19      2.24    2.88    1.00
  H0016792             CONDUIT     1.376     0  02:20      2.19    0.79    0.98
  H0019507             CONDUIT     0.083     0  02:20      1.18    1.16    1.00
  H0019998             CONDUIT     1.765     0  02:22      3.41    0.71    1.00
  H0019576             CONDUIT     1.453     0  02:20      2.58    0.98    0.85
  H0020087             CONDUIT     0.078     0  02:20      0.40    0.34    1.00
  H0020211             CONDUIT     1.376     0  02:21      2.19    3.43    0.97
  H0018982             CONDUIT     0.297     0  02:21      0.84    0.48    0.64
  H0018753             CONDUIT     0.048     0  02:20      0.67    0.68    1.00
  H0018845             CONDUIT     0.000     0  00:00      0.00    0.00    0.00
  H0018863             CONDUIT     0.117     0  02:20      1.65    2.74    1.00
  H0019156             CONDUIT     0.000     0  00:00      0.00    0.00    0.00
  H0018929             CONDUIT     0.677     0  02:21      1.39    0.59    0.75
  H0018440             CONDUIT     0.161     0  02:17      2.28    2.89    1.00
  H0018456             CONDUIT     0.286     0  02:20      2.28    1.74    1.00
  H0018968             CONDUIT     2.257     0  02:21      5.08    0.87    0.66
  H0022036             CONDUIT     0.078     0  02:20      0.54    0.06    0.40
  H0021806             CONDUIT     0.214     0  02:20      1.70    1.90    1.00
  H0022111             CONDUIT     0.166     0  02:20      0.91    1.18    1.00
  H0021440             CONDUIT     1.302     0  02:20      2.51    0.84    0.80
  H0021704             CONDUIT     0.771     0  02:20      1.63    1.47    0.75
  H0020521             CONDUIT     0.082     0  02:18      1.15    1.65    1.00
  H0020755             CONDUIT     0.126     0  02:20      1.00    1.38    1.00
  H0020530             CONDUIT     2.257     0  02:20      3.55    1.93    1.00
  H0020618             CONDUIT     1.661     0  02:21      3.34    1.03    0.88
  H0021163             CONDUIT     0.123     0  02:18      1.74    2.06    1.00
  H0020497             CONDUIT     0.004     0  02:20      0.06    0.01    1.00
  H0024325             CONDUIT     0.312     0  02:20      1.88    0.93    1.00
  H0023585             CONDUIT     0.594     0  02:20      3.03    1.37    1.00
  H0024098             CONDUIT     0.210     0  02:20      2.97    2.45    1.00
  H0024235             CONDUIT     0.349     0  02:20      1.78    1.43    1.00
  H0024282             CONDUIT     0.000     0  00:00      0.00    0.00    0.01
  H0024308             CONDUIT     2.268     0  02:21      5.74    0.66    0.60
  H0024498             CONDUIT     0.150     0  02:19      2.13    2.33    1.00
  H0026990             CONDUIT     0.095     0  02:20      0.82    0.72    1.00
  H0041650             CONDUIT     0.453     0  02:21      1.02    0.53    0.68
  H0041011             CONDUIT     0.117     0  02:18      1.66    1.16    1.00
  H0045103             CONDUIT     0.322     0  02:21      0.88    0.40    0.66
  H0045104             CONDUIT     2.240     0  02:21      4.74    0.79    0.70
  H0045105             CONDUIT     0.026     0  02:20      0.42    0.44    1.00
  H0045106             CONDUIT     0.437     0  02:20      2.41    0.59    1.00
  H0045107             CONDUIT     0.072     0  02:21      1.01    1.18    1.00
  H0045108             CONDUIT     0.089     0  02:22      1.26    1.60    1.00
  
  
  ***************************
  Flow Classification Summary
  ***************************
  
  -------------------------------------------------------------------------------------
                      Adjusted    ---------- Fraction of Time in Flow Class ---------- 
                       /Actual         Up    Down  Sub   Sup   Up    Down  Norm  Inlet 
  Conduit               Length    Dry  Dry   Dry   Crit  Crit  Crit  Crit  Ltd   Ctrl  
  -------------------------------------------------------------------------------------
  H0014431                1.00   0.03  0.00  0.00  0.97  0.00  0.00  0.00  0.97  0.00
  H0014433                1.00   0.03  0.00  0.00  0.97  0.00  0.00  0.00  0.97  0.00
  H0014352                1.00   0.03  0.00  0.00  0.95  0.02  0.00  0.00  0.97  0.00
  H0014373                1.00   0.03  0.00  0.00  0.93  0.04  0.00  0.00  0.92  0.00
  H0017981                1.00   0.03  0.00  0.00  0.00  0.00  0.00  0.97  0.00  0.00
  H0017755                1.00   0.03  0.00  0.00  0.00  0.00  0.00  0.97  0.00  0.00
  H0017791                1.00   0.03  0.00  0.00  0.97  0.00  0.00  0.00  0.97  0.00
  H0017357                1.00   0.03  0.97  0.00  0.00  0.00  0.00  0.00  0.97  0.00
  H0018216                1.00   0.03  0.93  0.00  0.04  0.00  0.00  0.00  0.97  0.00
  H0016792                1.00   0.03  0.92  0.00  0.05  0.00  0.00  0.00  0.97  0.00
  H0019507                1.00   0.03  0.00  0.00  0.97  0.00  0.00  0.00  0.97  0.00
  H0019998                1.00   0.03  0.00  0.00  0.94  0.04  0.00  0.00  0.05  0.00
  H0019576                1.00   0.03  0.00  0.00  0.96  0.02  0.00  0.00  0.05  0.00
  H0020087                1.00   0.03  0.96  0.00  0.02  0.00  0.00  0.00  0.96  0.00
  H0020211                1.00   0.03  0.00  0.00  0.97  0.00  0.00  0.00  0.92  0.00
  H0018982                1.00   0.03  0.00  0.00  0.97  0.00  0.00  0.00  0.94  0.00
  H0018753                1.00   0.03  0.00  0.00  0.97  0.00  0.00  0.00  0.97  0.00
  H0018845                1.00   1.00  0.00  0.00  0.00  0.00  0.00  0.00  0.00  0.00
  H0018863                1.00   0.03  0.00  0.00  0.97  0.00  0.00  0.00  0.97  0.00
  H0019156                1.00   1.00  0.00  0.00  0.00  0.00  0.00  0.00  0.00  0.00
  H0018929                1.00   0.03  0.93  0.00  0.05  0.00  0.00  0.00  0.97  0.00
  H0018440                1.00   0.03  0.00  0.00  0.97  0.00  0.00  0.00  0.97  0.00
  H0018456                1.00   0.03  0.00  0.00  0.97  0.00  0.00  0.00  0.96  0.00
  H0018968                1.00   0.03  0.92  0.00  0.01  0.04  0.00  0.00  0.94  0.00
  H0022036                1.00   0.03  0.00  0.00  0.01  0.00  0.00  0.96  0.01  0.00
  H0021806                1.00   0.03  0.93  0.00  0.04  0.00  0.00  0.00  0.96  0.00
  H0022111                1.00   0.03  0.00  0.00  0.97  0.00  0.00  0.00  0.00  0.00
  H0021440                1.00   0.03  0.00  0.00  0.95  0.02  0.00  0.00  0.02  0.00
  H0021704                1.00   0.03  0.00  0.00  0.00  0.00  0.00  0.97  0.00  0.00
  H0020521                1.00   0.03  0.00  0.00  0.97  0.00  0.00  0.00  0.97  0.00
  H0020755                1.00   0.03  0.93  0.00  0.04  0.00  0.00  0.00  0.97  0.00
  H0020530                1.00   0.03  0.00  0.00  0.95  0.02  0.00  0.00  0.01  0.00
  H0020618                1.00   0.03  0.00  0.00  0.94  0.03  0.00  0.00  0.93  0.00
  H0021163                1.00   0.03  0.00  0.00  0.97  0.01  0.00  0.00  0.94  0.00
  H0020497                1.20   0.03  0.97  0.00  0.00  0.00  0.00  0.00  0.97  0.00
  H0024325                1.00   0.03  0.00  0.00  0.95  0.02  0.00  0.00  0.94  0.00
  H0023585                1.00   0.03  0.00  0.00  0.00  0.00  0.00  0.97  0.00  0.00
  H0024098                1.00   0.03  0.93  0.00  0.04  0.00  0.00  0.00  0.97  0.00
  H0024235                1.00   0.03  0.00  0.00  0.00  0.00  0.00  0.97  0.00  0.00
  H0024282                1.00   1.00  0.00  0.00  0.00  0.00  0.00  0.00  0.00  0.00
  H0024308                1.00   0.03  0.00  0.00  0.92  0.05  0.00  0.00  0.01  0.00
  H0024498                1.00   0.03  0.00  0.00  0.00  0.00  0.00  0.97  0.00  0.00
  H0026990                1.00   0.03  0.00  0.00  0.97  0.00  0.00  0.00  0.97  0.00
  H0041650                1.00   0.95  0.01  0.00  0.04  0.00  0.00  0.00  0.96  0.00
  H0041011                1.00   0.03  0.00  0.00  0.97  0.00  0.00  0.00  0.97  0.00
  H0045103                1.00   0.03  0.00  0.00  0.97  0.00  0.00  0.00  0.95  0.00
  H0045104                1.00   0.03  0.00  0.00  0.93  0.04  0.00  0.00  0.05  0.00
  H0045105                1.00   0.03  0.00  0.00  0.97  0.00  0.00  0.00  0.97  0.00
  H0045106                1.00   0.03  0.93  0.00  0.02  0.02  0.00  0.00  0.97  0.00
  H0045107                1.00   0.03  0.00  0.00  0.97  0.00  0.00  0.00  0.97  0.00
  H0045108                1.00   0.03  0.00  0.00  0.97  0.00  0.00  0.00  0.97  0.00
  
  
  *************************
  Conduit Surcharge Summary
  *************************
  
  ----------------------------------------------------------------------------
                                                           Hours        Hours 
                         --------- Hours Full --------   Above Full   Capacity
  Conduit                Both Ends  Upstream  Dnstream   Normal Flow   Limited
  ----------------------------------------------------------------------------
  H0014431                    0.19      0.20      0.19      0.21         0.18
  H0014433                    0.13      0.13      0.17      0.04         0.04
  H0014352                    0.04      0.04      0.08      0.01         0.01
  H0014373                    0.01      0.01      0.01      0.03         0.01
  H0017981                    0.09      0.12      0.09      0.24         0.11
  H0017755                    0.09      0.10      0.09      0.15         0.10
  H0017357                    0.04      0.04      0.13      0.08         0.01
  H0018216                    0.12      0.15      0.12      0.17         0.14
  H0016792                    0.01      0.01      0.05      0.01         0.01
  H0019507                    0.13      0.13      0.20      0.03         0.03
  H0019998                    0.01      0.01      0.04      0.01         0.01
  H0020087                    0.03      0.03      0.03      0.01         0.01
  H0020211                    0.01      0.05      0.01      0.21         0.01
  H0018753                    0.13      0.13      0.20      0.01         0.01
  H0018863                    0.20      0.20      0.22      0.12         0.12
  H0018440                    0.17      0.22      0.17      0.26         0.21
  H0018456                    0.07      0.08      0.07      0.11         0.08
  H0021806                    0.10      0.14      0.10      0.16         0.12
  H0022111                    0.03      0.03      0.04      0.03         0.02
  H0021704                    0.01      0.01      0.01      0.10         0.01
  H0020521                    0.12      0.12      0.15      0.10         0.10
  H0020755                    0.08      0.08      0.08      0.03         0.03
  H0020530                    0.01      0.08      0.01      0.13         0.07
  H0020618                    0.01      0.01      0.01      0.02         0.01
  H0021163                    0.16      0.17      0.18      0.17         0.15
  H0020497                    0.01      0.01     73.66      0.01         0.01
  H0024325                    0.04      0.04      0.06      0.01         0.01
  H0023585                    0.06      0.08      0.06      0.09         0.08
  H0024098                    0.21      0.22      0.25      0.19         0.17
  H0024235                    0.03      0.04      0.03      0.07         0.04
  H0024498                    0.07      0.19      0.07      0.23         0.16
  H0026990                    0.04      0.04      0.08      0.01         0.01
  H0041011                    0.18      0.18      0.22      0.06         0.05
  H0045105                    0.05      0.05      0.06      0.01         0.01
  H0045106                    0.06      0.06      0.08      0.01         0.01
  H0045107                    0.16      0.16      0.20      0.06         0.06
  H0045108                    0.20      0.20      0.22      0.15         0.15
  

  Analysis begun on:  Fri Mar 22 15:56:40 2024
  Analysis ended on:  Fri Mar 22 15:56:48 2024
  Total elapsed time: 00:00:08