
  EPA STORM WATER MANAGEMENT MODEL - VERSION 5.2 (Build 5.2.4)
  PYSWMM TOOLKIT API - VERSION v1.0 (2023-11-27)
  ------------------------------------------------------------

  Gievenbeck_e2_T100D15 
  
  ****************
  Analysis Options
  ****************
  Flow Units ............... CMS
  Process Models:
    Rainfall/Runoff ........ YES
    RDII ................... NO
    Snowmelt ............... NO
    Groundwater ............ NO
    Flow Routing ........... YES
    Ponding Allowed ........ NO
    Water Quality .......... NO
  Infiltration Method ...... HORTON
  Flow Routing Method ...... DYNWAVE
  Surcharge Method ......... SLOT
  Starting Date ............ 01/01/2024 00:00:00
  Ending Date .............. 01/04/2024 04:00:00
  Antecedent Dry Days ...... 14.0
  Report Time Step ......... 00:01:00
  Wet Time Step ............ 00:01:00
  Dry Time Step ............ 00:01:00
  Routing Time Step ........ 1.00 sec
  Variable Time Step ....... YES
  Maximum Trials ........... 8
  Number of Threads ........ 1
  Head Tolerance ........... 0.001500 m
  
  
  **************************        Volume         Depth
  Runoff Quantity Continuity     hectare-m            mm
  **************************     ---------       -------
  Total Precipitation ......         0.309        30.500
  Evaporation Loss .........         0.010         0.970
  Infiltration Loss ........         0.112        11.047
  Surface Runoff ...........         0.189        18.650
  Final Storage ............         0.000         0.000
  Continuity Error (%) .....        -0.548
  
  
  **************************        Volume        Volume
  Flow Routing Continuity        hectare-m      10^6 ltr
  **************************     ---------     ---------
  Dry Weather Inflow .......         0.000         0.000
  Wet Weather Inflow .......         0.189         1.888
  Groundwater Inflow .......         0.000         0.000
  RDII Inflow ..............         0.000         0.000
  External Inflow ..........         0.000         0.000
  External Outflow .........         0.181         1.807
  Flooding Loss ............         0.009         0.090
  Evaporation Loss .........         0.000         0.000
  Exfiltration Loss ........         0.000         0.000
  Initial Stored Volume ....         0.000         0.000
  Final Stored Volume ......         0.000         0.000
  Continuity Error (%) .....        -0.461
  
  
  *************************
  Highest Continuity Errors
  *************************
  Node R0019206 (9.52%)
  Node R0019718 (-1.31%)
  
  
  ***************************
  Time-Step Critical Elements
  ***************************
  None
  
  
  ********************************
  Highest Flow Instability Indexes
  ********************************
  All links are stable.
  
  
  *********************************
  Most Frequent Nonconverging Nodes
  *********************************
  Convergence obtained at all time steps.
  
  
  *************************
  Routing Time Step Summary
  *************************
  Minimum Time Step           :     0.34 sec
  Average Time Step           :     1.00 sec
  Maximum Time Step           :     1.00 sec
  % of Time in Steady State   :     0.00
  Average Iterations per Step :     2.00
  % of Steps Not Converging   :     0.00
  Time Step Frequencies       :
      1.000 -  0.871 sec      :    99.99 %
      0.871 -  0.758 sec      :     0.00 %
      0.758 -  0.660 sec      :     0.00 %
      0.660 -  0.574 sec      :     0.00 %
      0.574 -  0.500 sec      :     0.00 %
  
  
  ***************************
  Subcatchment Runoff Summary
  ***************************
  
  ------------------------------------------------------------------------------------------------------------------------------
                            Total      Total      Total      Total     Imperv       Perv      Total       Total     Peak  Runoff
                           Precip      Runon       Evap      Infil     Runoff     Runoff     Runoff      Runoff   Runoff   Coeff
  Subcatchment                 mm         mm         mm         mm         mm         mm         mm    10^6 ltr      CMS
  ------------------------------------------------------------------------------------------------------------------------------
  EZG_368                   30.50       0.00       0.96      11.17      14.43       6.26      18.53        0.08     0.16   0.608
  EZG_392                   30.50       0.00       0.96      10.95      14.45       6.48      18.76        0.06     0.13   0.615
  EZG_352                   30.50       0.00       0.97      11.50      14.41       5.92      18.17        0.11     0.21   0.596
  EZG_372                   30.50       0.00       0.95      10.25      14.51       7.21      19.54        0.03     0.06   0.641
  EZG_416                   30.50       0.00       0.96      10.86      14.45       6.58      18.86        0.05     0.12   0.618
  EZG_388                   30.50       0.00       0.97      11.26      14.43       6.17      18.43        0.08     0.17   0.604
  EZG_394                   30.50       0.00       0.96      10.82      14.46       6.62      18.91        0.05     0.11   0.620
  EZG_400                   30.50       0.00       0.96      10.76      14.46       6.68      18.98        0.05     0.10   0.622
  EZG_390                   30.50       0.00       0.96      10.93      14.45       6.50      18.79        0.06     0.12   0.616
  EZG_350                   30.50       0.00       0.97      11.26      14.43       6.16      18.43        0.08     0.17   0.604
  EZG_370                   30.50       0.00       0.96      11.04      14.44       6.39      18.67        0.07     0.14   0.612
  EZG_398                   30.50       0.00       0.94      10.03      14.53       7.44      19.79        0.02     0.05   0.649
  EZG_382                   30.50       0.00       0.94       9.95      14.54       7.52      19.88        0.02     0.04   0.652
  EZG_374                   30.50       0.00       1.16       8.78      17.30       6.03      20.74        0.08     0.16   0.680
  EZG_412                   30.50       0.00       0.93       9.49      14.61       8.01      20.43        0.01     0.02   0.670
  EZG_344                   30.50       0.00       0.96      10.74      14.46       6.70      18.99        0.05     0.10   0.623
  EZG_376                   30.50       0.00       0.95      10.55      14.48       6.90      19.21        0.04     0.08   0.630
  EZG_356                   30.50       0.00       0.97      11.57      14.41       5.84      18.09        0.12     0.23   0.593
  EZG_386                   30.50       0.00       0.98      11.79      14.39       5.63      17.86        0.14     0.27   0.586
  EZG_380                   30.50       0.00       0.96      11.11      14.44       6.32      18.59        0.07     0.15   0.609
  EZG_378                   30.50       0.00       0.96      11.00      14.44       6.43      18.71        0.06     0.13   0.613
  EZG_414                   30.50       0.00       0.94       9.94      14.54       7.53      19.89        0.02     0.04   0.652
  EZG_402                   30.50       0.00       0.96      10.95      14.45       6.48      18.76        0.06     0.13   0.615
  EZG_358                   30.50       0.00       0.97      11.56      14.41       5.86      18.10        0.11     0.22   0.594
  EZG_364                   30.50       0.00       0.97      11.56      14.41       5.86      18.10        0.11     0.22   0.593
  EZG_410                   30.50       0.00       0.95      10.59      14.48       6.86      19.16        0.04     0.09   0.628
  EZG_366                   30.50       0.00       0.95      10.69      14.47       6.75      19.04        0.05     0.10   0.624
  EZG_18259                 30.50       0.00       0.95      10.69      14.47       6.75      19.05        0.05     0.10   0.625
  EZG_18258                 30.50       0.00       0.94       9.72      14.57       7.76      20.14        0.01     0.03   0.660
  EZG_346                   30.50       0.00       0.94      11.29      14.15       6.41      18.44        0.07     0.14   0.604
  EZG_348                   30.50       0.00       0.93      10.86      14.18       6.85      18.90        0.04     0.09   0.620
  
  
  ******************
  Node Depth Summary
  ******************
  
  ---------------------------------------------------------------------------------
                                 Average  Maximum  Maximum  Time of Max    Reported
                                   Depth    Depth      HGL   Occurrence   Max Depth
  Node                 Type       Meters   Meters   Meters  days hr:min      Meters
  ---------------------------------------------------------------------------------
  R0019466             JUNCTION     0.00     2.47    71.92     0  02:10        2.29
  R0019468             JUNCTION     0.00     2.43    71.74     0  02:10        2.19
  R0019831             JUNCTION     0.00     1.66    70.83     0  02:08        1.66
  R0019825             JUNCTION     0.00     1.50    70.34     0  02:08        1.50
  R0019843             JUNCTION     0.00     1.93    69.56     0  02:10        1.38
  R0019368             JUNCTION     0.01     1.74    68.53     0  02:10        1.53
  R0019369             JUNCTION     0.00     0.85    67.44     0  02:11        0.84
  R0019370             JUNCTION     0.00     0.66    66.56     0  02:10        0.64
  R0019345             JUNCTION     0.00     1.39    71.29     0  02:10        1.35
  R0019346             JUNCTION     0.00     1.20    71.00     0  02:10        1.15
  R0043600             JUNCTION     0.00     0.87    70.54     0  02:11        0.77
  R0019203             JUNCTION     0.00     0.86    70.40     0  02:11        0.77
  R0043594             JUNCTION     0.00     0.65    70.38     0  02:12        0.64
  R0021458             JUNCTION     0.00     0.73    70.38     0  02:11        0.71
  R0019202             JUNCTION     0.00     0.77    70.35     0  02:11        0.75
  R0019373             JUNCTION     0.00     2.03    71.70     0  02:10        1.89
  R0019254             JUNCTION     0.00     2.10    72.14     0  02:10        2.10
  R0019716             JUNCTION     0.00     1.20    70.21     0  02:10        1.14
  R0019946             JUNCTION     0.00     1.33    69.95     0  02:10        1.25
  R0013935             JUNCTION     0.00     1.62    70.45     0  02:09        1.62
  R0019939             JUNCTION     0.00     1.67    70.24     0  02:10        1.66
  R0019944             JUNCTION     0.00     1.19    69.47     0  02:10        1.03
  R0043703             JUNCTION     0.00     1.09    69.69     0  02:10        1.04
  R0019945             JUNCTION     0.00     1.24    69.64     0  02:10        1.02
  R0039621             JUNCTION     0.00     1.56    71.13     0  02:09        1.56
  R0019838             JUNCTION     0.00     1.79    71.25     0  02:09        1.66
  R0039606             JUNCTION     0.00     0.78    70.37     0  02:11        0.76
  R0019204             JUNCTION     0.00     0.00    69.91     0  00:00        0.00
  R0019205             JUNCTION     0.00     0.00    69.62     0  00:00        0.00
  R0019849             JUNCTION     0.00     1.47    69.99     0  02:10        1.43
  R0019371             JUNCTION     0.00     0.00    70.41     0  00:00        0.00
  R0019718             JUNCTION     0.00     0.93    70.35     0  02:10        0.87
  R0021442             JUNCTION     0.01     2.05    72.10     0  02:08        2.05
  R0019247             JUNCTION     0.00     1.25    71.13     0  02:10        1.25
  R0019719             JUNCTION     0.00     0.95    70.63     0  02:10        0.91
  R0019767             JUNCTION     0.00     0.71    65.44     0  02:11        0.71
  R0019768             JUNCTION     0.00     0.58    64.35     0  02:11        0.57
  R0021453             JUNCTION     0.00     0.47    70.42     0  02:12        0.41
  R0019839             JUNCTION     0.00     1.79    71.18     0  02:09        1.74
  R0019717             JUNCTION     0.00     0.94    70.28     0  02:11        0.87
  R0019252             JUNCTION     0.00     1.94    72.13     0  02:08        1.94
  R0019721             JUNCTION     0.00     1.33    71.20     0  02:10        1.30
  R0019942             JUNCTION     0.00     1.42    70.07     0  02:10        1.38
  R0019206             JUNCTION     0.00     0.09    69.16     0  02:10        0.01
  R0019840             JUNCTION     0.00     1.89    70.86     0  02:10        1.64
  R0043702             JUNCTION     0.00     2.04    70.74     0  02:10        1.81
  R0019723             JUNCTION     0.00     1.30    71.38     0  02:10        1.19
  R0019724             JUNCTION     0.00     1.22    71.38     0  02:10        1.17
  R0021433             JUNCTION     0.01     2.15    72.54     0  02:08        2.15
  R0021435             JUNCTION     0.01     2.11    72.29     0  02:08        2.11
  R0019769             OUTFALL      0.00     0.57    63.95     0  02:11        0.55
  
  
  *******************
  Node Inflow Summary
  *******************
  
  -------------------------------------------------------------------------------------------------
                                  Maximum  Maximum                  Lateral       Total        Flow
                                  Lateral    Total  Time of Max      Inflow      Inflow     Balance
                                   Inflow   Inflow   Occurrence      Volume      Volume       Error
  Node                 Type           CMS      CMS  days hr:min    10^6 ltr    10^6 ltr     Percent
  -------------------------------------------------------------------------------------------------
  R0019466             JUNCTION     0.156    0.156     0  02:10      0.0766      0.0926       0.214
  R0019468             JUNCTION     0.098    0.177     0  02:09      0.0456       0.122      -0.199
  R0019831             JUNCTION     0.127    0.127     0  02:10      0.0608      0.0608       0.132
  R0019825             JUNCTION     0.127    0.228     0  02:10       0.061        0.12       0.173
  R0019843             JUNCTION     0.000    2.626     0  02:10           0         1.8      -0.074
  R0019368             JUNCTION     0.000    2.376     0  02:10           0        1.81      -0.048
  R0019369             JUNCTION     0.000    2.383     0  02:10           0        1.81      -0.022
  R0019370             JUNCTION     0.000    2.383     0  02:11           0        1.81       0.002
  R0019345             JUNCTION     0.000    0.163     0  02:08           0       0.108      -0.107
  R0019346             JUNCTION     0.020    0.313     0  02:10     0.00815       0.191       0.060
  R0043600             JUNCTION     0.000    0.224     0  02:09           0       0.181      -0.195
  R0019203             JUNCTION     0.041    0.774     0  02:13      0.0176       0.532      -0.023
  R0043594             JUNCTION     0.210    0.282     0  02:09       0.107       0.155      -0.168
  R0021458             JUNCTION     0.170    0.381     0  02:09      0.0846        0.24      -0.009
  R0019202             JUNCTION     0.060    0.555     0  02:13      0.0264       0.333      -0.332
  R0019373             JUNCTION     0.138    0.199     0  02:10      0.0669      0.0831       0.996
  R0019254             JUNCTION     0.116    0.177     0  02:08      0.0549       0.108       0.043
  R0019716             JUNCTION     0.169    1.569     0  02:10       0.084        1.07      -0.024
  R0019946             JUNCTION     0.000    1.490     0  02:10           0        1.07       0.029
  R0013935             JUNCTION     0.111    0.111     0  02:10      0.0525      0.0525       0.193
  R0019939             JUNCTION     0.046    0.132     0  02:09      0.0196      0.0699      -0.157
  R0019944             JUNCTION     0.104    1.848     0  02:10      0.0489        1.34       0.037
  R0043703             JUNCTION     0.124    1.631     0  02:10      0.0594        1.13      -0.022
  R0019945             JUNCTION     0.000    1.795     0  02:10           0        1.29      -0.034
  R0039621             JUNCTION     0.000    0.162     0  02:09           0     0.00843      -2.351
  R0019838             JUNCTION     0.225    0.264     0  02:09       0.116        0.12      -0.198
  R0039606             JUNCTION     0.000    0.420     0  02:13           0       0.241       0.145
  R0019204             JUNCTION     0.000    0.000     0  00:00           0           0       0.000 ltr
  R0019205             JUNCTION     0.000    0.000     0  00:00           0           0       0.000 ltr
  R0019849             JUNCTION     0.000    0.229     0  02:09           0       0.164       0.031
  R0019371             JUNCTION     0.000    0.000     0  00:00           0           0       0.000 ltr
  R0019718             JUNCTION     0.148    0.866     0  02:10      0.0724       0.605      -1.292
  R0021442             JUNCTION     0.163    0.236     0  02:10      0.0786       0.157       0.069
  R0019247             JUNCTION     0.084    0.225     0  02:10      0.0383       0.181       0.123
  R0019719             JUNCTION     0.088    0.394     0  02:10      0.0402       0.231       0.983
  R0019767             JUNCTION     0.000    2.402     0  02:11           0        1.81      -0.004
  R0019768             JUNCTION     0.000    2.458     0  02:11           0        1.81       0.019
  R0021453             JUNCTION     0.103    0.103     0  02:10       0.048       0.048      -0.034
  R0019839             JUNCTION     0.223    0.407     0  02:09       0.115       0.227      -0.023
  R0019717             JUNCTION     0.270    1.462     0  02:10       0.143       0.985      -0.093
  R0019252             JUNCTION     0.133    0.133     0  02:10      0.0641      0.0641       0.058
  R0019721             JUNCTION     0.041    0.157     0  02:10      0.0173      0.0751       0.075
  R0019942             JUNCTION     0.000    0.133     0  02:08           0       0.094      -0.427
  R0019206             JUNCTION     0.000    0.094     0  02:10           0    0.000538      10.519
  R0019840             JUNCTION     0.000    0.550     0  02:09           0       0.349      -0.037
  R0043702             JUNCTION     0.223    0.732     0  02:10       0.115       0.464       0.365
  R0019723             JUNCTION     0.097    0.126     0  02:09      0.0453      0.0579      -0.284
  R0019724             JUNCTION     0.030    0.056     0  02:09      0.0123      0.0126      -0.597
  R0021433             JUNCTION     0.138    0.138     0  02:10      0.0671      0.0671       0.069
  R0021435             JUNCTION     0.091    0.162     0  02:10       0.042      0.0999      -0.212
  R0019769             OUTFALL      0.000    2.490     0  02:11           0        1.81       0.000
  
  
  **********************
  Node Surcharge Summary
  **********************
  
  Surcharging occurs when water rises above the top of the highest conduit.
  ---------------------------------------------------------------------
                                               Max. Height   Min. Depth
                                   Hours       Above Crown    Below Rim
  Node                 Type      Surcharged         Meters       Meters
  ---------------------------------------------------------------------
  R0019466             JUNCTION        0.26          2.170        0.340
  R0019468             JUNCTION        0.25          2.133        0.297
  R0019831             JUNCTION        0.20          1.360        0.000
  R0019825             JUNCTION        0.24          1.200        0.000
  R0019843             JUNCTION        0.10          1.028        1.592
  R0019368             JUNCTION        0.13          0.844        0.206
  R0019345             JUNCTION        0.18          1.092        0.658
  R0019346             JUNCTION        0.13          0.799        0.941
  R0043600             JUNCTION        0.16          0.472        2.108
  R0019373             JUNCTION        0.20          1.729        0.771
  R0019254             JUNCTION        0.22          1.796        0.034
  R0019716             JUNCTION        0.05          0.305        1.415
  R0019946             JUNCTION        0.10          0.429        1.091
  R0013935             JUNCTION        0.21          1.320        0.000
  R0019939             JUNCTION        0.26          1.365        0.255
  R0019944             JUNCTION        0.03          0.294        1.236
  R0043703             JUNCTION        0.02          0.190        1.130
  R0019945             JUNCTION        0.03          0.341        1.119
  R0039621             JUNCTION        0.07          1.060        0.000
  R0019838             JUNCTION        0.08          1.288        0.012
  R0019849             JUNCTION        0.27          1.166        0.764
  R0019718             JUNCTION        0.01          0.030        1.970
  R0021442             JUNCTION        0.26          1.750        0.000
  R0019247             JUNCTION        0.20          0.852        1.008
  R0019719             JUNCTION        0.09          0.447        1.353
  R0019839             JUNCTION        0.09          1.286        0.364
  R0019252             JUNCTION        0.19          1.640        0.000
  R0019721             JUNCTION        0.13          0.929        0.631
  R0019942             JUNCTION        0.24          1.121        0.529
  R0019840             JUNCTION        0.12          1.393        1.177
  R0043702             JUNCTION        0.14          1.539        1.371
  R0019723             JUNCTION        0.09          0.899        0.421
  R0019724             JUNCTION        0.09          0.917        0.533
  R0021433             JUNCTION        0.23          1.850        0.000
  R0021435             JUNCTION        0.25          1.810        0.000
  
  
  *********************
  Node Flooding Summary
  *********************
  
  Flooding refers to all water that overflows a node, whether it ponds or not.
  --------------------------------------------------------------------------
                                                             Total   Maximum
                                 Maximum   Time of Max       Flood    Ponded
                        Hours       Rate    Occurrence      Volume     Depth
  Node                 Flooded       CMS   days hr:min    10^6 ltr    Meters
  --------------------------------------------------------------------------
  R0019831                0.04     0.026      0  02:10       0.002     0.000
  R0019825                0.11     0.130      0  02:10       0.026     0.000
  R0013935                0.03     0.031      0  02:10       0.002     0.000
  R0039621                0.02     0.090      0  02:09       0.004     0.000
  R0021442                0.08     0.094      0  02:10       0.014     0.000
  R0019252                0.06     0.102      0  02:10       0.011     0.000
  R0021433                0.08     0.067      0  02:10       0.009     0.000
  R0021435                0.12     0.090      0  02:10       0.022     0.000
  
  
  ***********************
  Outfall Loading Summary
  ***********************
  
  -----------------------------------------------------------
                         Flow       Avg       Max       Total
                         Freq      Flow      Flow      Volume
  Outfall Node           Pcnt       CMS       CMS    10^6 ltr
  -----------------------------------------------------------
  R0019769               3.92     0.170     2.490       1.807
  -----------------------------------------------------------
  System                 3.92     0.170     2.490       1.807
  
  
  ********************
  Link Flow Summary
  ********************
  
  -----------------------------------------------------------------------------
                                 Maximum  Time of Max   Maximum    Max/    Max/
                                  |Flow|   Occurrence   |Veloc|    Full    Full
  Link                 Type          CMS  days hr:min     m/sec    Flow   Depth
  -----------------------------------------------------------------------------
  H0014431             CONDUIT     0.095     0  02:07      1.35    1.77    1.00
  H0014433             CONDUIT     0.100     0  02:10      1.42    1.28    1.00
  H0014352             CONDUIT     2.376     0  02:10      3.73    0.97    1.00
  H0014373             CONDUIT     2.383     0  02:11      4.31    1.10    0.83
  H0017981             CONDUIT     0.165     0  02:09      2.33    4.65    1.00
  H0017755             CONDUIT     0.227     0  02:08      1.80    1.84    1.00
  H0017791             CONDUIT     0.278     0  02:13      0.78    0.40    0.75
  H0017357             CONDUIT     0.195     0  02:10      2.76    3.12    1.00
  H0018216             CONDUIT     0.163     0  02:08      2.30    2.97    1.00
  H0016792             CONDUIT     1.490     0  02:10      2.34    0.86    1.00
  H0019507             CONDUIT     0.090     0  02:09      1.27    1.25    1.00
  H0019998             CONDUIT     1.915     0  02:10      3.44    0.77    1.00
  H0019576             CONDUIT     1.594     0  02:10      2.63    1.07    1.00
  H0020087             CONDUIT     0.162     0  02:09      0.82    0.71    1.00
  H0020211             CONDUIT     1.523     0  02:10      2.39    3.80    1.00
  H0018982             CONDUIT     0.420     0  02:13      0.91    0.67    0.83
  H0018753             CONDUIT     0.074     0  02:10      1.05    1.05    1.00
  H0018845             CONDUIT     0.000     0  00:00      0.00    0.00    0.00
  H0018863             CONDUIT     0.128     0  02:09      1.80    3.00    1.00
  H0019156             CONDUIT     0.000     0  00:00      0.00    0.00    0.00
  H0018929             CONDUIT     0.791     0  02:13      1.42    0.69    0.98
  H0018440             CONDUIT     0.162     0  02:08      2.29    2.90    1.00
  H0018456             CONDUIT     0.313     0  02:10      2.49    1.90    1.00
  H0018968             CONDUIT     2.458     0  02:11      5.13    0.94    0.71
  H0022036             CONDUIT     0.102     0  02:12      0.71    0.08    0.61
  H0021806             CONDUIT     0.224     0  02:09      1.79    1.99    1.00
  H0022111             CONDUIT     0.188     0  02:09      0.96    1.35    1.00
  H0021440             CONDUIT     1.406     0  02:10      2.51    0.91    1.00
  H0021704             CONDUIT     0.866     0  02:13      1.63    1.65    1.00
  H0020521             CONDUIT     0.084     0  02:08      1.18    1.69    1.00
  H0020755             CONDUIT     0.156     0  02:10      1.24    1.72    1.00
  H0020530             CONDUIT     2.383     0  02:10      3.75    2.04    1.00
  H0020618             CONDUIT     1.753     0  02:10      3.35    1.09    1.00
  H0021163             CONDUIT     0.133     0  02:08      1.88    2.22    1.00
  H0020497             CONDUIT     0.094     0  02:10      1.33    0.21    1.00
  H0024325             CONDUIT     0.397     0  02:10      2.02    1.18    1.00
  H0023585             CONDUIT     0.735     0  02:10      3.74    1.69    1.00
  H0024098             CONDUIT     0.224     0  02:09      3.18    2.62    1.00
  H0024235             CONDUIT     0.394     0  02:10      2.01    1.62    1.00
  H0024282             CONDUIT     0.000     0  00:00      0.00    0.00    0.16
  H0024308             CONDUIT     2.490     0  02:11      5.85    0.73    0.64
  H0024498             CONDUIT     0.165     0  02:09      2.34    2.56    1.00
  H0026990             CONDUIT     0.121     0  02:10      0.96    0.91    1.00
  H0041650             CONDUIT     0.567     0  02:13      1.07    0.66    0.89
  H0041011             CONDUIT     0.118     0  02:08      1.67    1.17    1.00
  H0045103             CONDUIT     0.442     0  02:13      0.86    0.55    0.86
  H0045104             CONDUIT     2.402     0  02:11      4.79    0.85    0.75
  H0045105             CONDUIT     0.032     0  02:10      0.47    0.56    1.00
  H0045106             CONDUIT     0.512     0  02:10      2.61    0.69    1.00
  H0045107             CONDUIT     0.072     0  02:12      1.01    1.18    1.00
  H0045108             CONDUIT     0.092     0  02:08      1.30    1.65    1.00
  
  
  ***************************
  Flow Classification Summary
  ***************************
  
  -------------------------------------------------------------------------------------
                      Adjusted    ---------- Fraction of Time in Flow Class ---------- 
                       /Actual         Up    Down  Sub   Sup   Up    Down  Norm  Inlet 
  Conduit               Length    Dry  Dry   Dry   Crit  Crit  Crit  Crit  Ltd   Ctrl  
  -------------------------------------------------------------------------------------
  H0014431                1.00   0.03  0.00  0.00  0.97  0.00  0.00  0.00  0.97  0.00
  H0014433                1.00   0.03  0.00  0.00  0.97  0.00  0.00  0.00  0.97  0.00
  H0014352                1.00   0.03  0.00  0.00  0.96  0.01  0.00  0.00  0.97  0.00
  H0014373                1.00   0.03  0.00  0.00  0.94  0.03  0.00  0.00  0.93  0.00
  H0017981                1.00   0.03  0.00  0.00  0.00  0.00  0.00  0.97  0.00  0.00
  H0017755                1.00   0.03  0.00  0.00  0.00  0.00  0.00  0.97  0.00  0.00
  H0017791                1.00   0.03  0.00  0.00  0.97  0.00  0.00  0.00  0.97  0.00
  H0017357                1.00   0.03  0.97  0.00  0.00  0.00  0.00  0.00  0.97  0.00
  H0018216                1.00   0.03  0.93  0.00  0.04  0.00  0.00  0.00  0.97  0.00
  H0016792                1.00   0.03  0.93  0.00  0.05  0.00  0.00  0.00  0.97  0.00
  H0019507                1.00   0.03  0.00  0.00  0.97  0.00  0.00  0.00  0.97  0.00
  H0019998                1.00   0.03  0.00  0.00  0.94  0.03  0.00  0.00  0.05  0.00
  H0019576                1.00   0.03  0.00  0.00  0.96  0.01  0.00  0.00  0.05  0.00
  H0020087                1.00   0.03  0.96  0.00  0.01  0.00  0.00  0.00  0.97  0.00
  H0020211                1.00   0.03  0.00  0.00  0.97  0.00  0.00  0.00  0.92  0.00
  H0018982                1.00   0.03  0.00  0.00  0.97  0.00  0.00  0.00  0.95  0.00
  H0018753                1.00   0.03  0.00  0.00  0.97  0.00  0.00  0.00  0.97  0.00
  H0018845                1.00   1.00  0.00  0.00  0.00  0.00  0.00  0.00  0.00  0.00
  H0018863                1.00   0.03  0.00  0.00  0.97  0.00  0.00  0.00  0.97  0.00
  H0019156                1.00   1.00  0.00  0.00  0.00  0.00  0.00  0.00  0.00  0.00
  H0018929                1.00   0.03  0.93  0.00  0.04  0.00  0.00  0.00  0.97  0.00
  H0018440                1.00   0.03  0.00  0.00  0.97  0.00  0.00  0.00  0.97  0.00
  H0018456                1.00   0.03  0.00  0.00  0.97  0.00  0.00  0.00  0.97  0.00
  H0018968                1.00   0.03  0.92  0.00  0.01  0.04  0.00  0.00  0.94  0.00
  H0022036                1.00   0.03  0.00  0.00  0.01  0.00  0.00  0.97  0.00  0.00
  H0021806                1.00   0.03  0.93  0.00  0.04  0.00  0.00  0.00  0.97  0.00
  H0022111                1.00   0.03  0.00  0.00  0.97  0.00  0.00  0.00  0.00  0.00
  H0021440                1.00   0.03  0.00  0.00  0.96  0.02  0.00  0.00  0.02  0.00
  H0021704                1.00   0.03  0.00  0.00  0.00  0.00  0.00  0.97  0.00  0.00
  H0020521                1.00   0.03  0.00  0.00  0.97  0.00  0.00  0.00  0.97  0.00
  H0020755                1.00   0.03  0.94  0.00  0.03  0.00  0.00  0.00  0.97  0.00
  H0020530                1.00   0.03  0.00  0.00  0.96  0.01  0.00  0.00  0.00  0.00
  H0020618                1.00   0.03  0.00  0.00  0.95  0.02  0.00  0.00  0.93  0.00
  H0021163                1.00   0.03  0.00  0.00  0.97  0.00  0.00  0.00  0.95  0.00
  H0020497                1.20   0.03  0.97  0.00  0.00  0.00  0.00  0.00  0.97  0.00
  H0024325                1.00   0.03  0.00  0.00  0.96  0.02  0.00  0.00  0.95  0.00
  H0023585                1.00   0.03  0.00  0.00  0.00  0.00  0.00  0.97  0.00  0.00
  H0024098                1.00   0.03  0.93  0.00  0.04  0.00  0.00  0.00  0.97  0.00
  H0024235                1.00   0.03  0.00  0.00  0.00  0.00  0.00  0.97  0.00  0.00
  H0024282                1.00   1.00  0.00  0.00  0.00  0.00  0.00  0.00  0.00  0.00
  H0024308                1.00   0.03  0.00  0.00  0.92  0.05  0.00  0.00  0.01  0.00
  H0024498                1.00   0.03  0.00  0.00  0.00  0.00  0.00  0.97  0.00  0.00
  H0026990                1.00   0.03  0.00  0.00  0.97  0.00  0.00  0.00  0.97  0.00
  H0041650                1.00   0.96  0.01  0.00  0.03  0.00  0.00  0.00  0.97  0.00
  H0041011                1.00   0.03  0.00  0.00  0.97  0.00  0.00  0.00  0.97  0.00
  H0045103                1.00   0.03  0.00  0.00  0.97  0.00  0.00  0.00  0.95  0.00
  H0045104                1.00   0.03  0.00  0.00  0.93  0.04  0.00  0.00  0.05  0.00
  H0045105                1.00   0.03  0.00  0.00  0.97  0.00  0.00  0.00  0.97  0.00
  H0045106                1.00   0.03  0.93  0.00  0.02  0.02  0.00  0.00  0.97  0.00
  H0045107                1.00   0.03  0.00  0.00  0.97  0.00  0.00  0.00  0.97  0.00
  H0045108                1.00   0.03  0.00  0.00  0.97  0.00  0.00  0.00  0.97  0.00
  
  
  *************************
  Conduit Surcharge Summary
  *************************
  
  ----------------------------------------------------------------------------
                                                           Hours        Hours 
                         --------- Hours Full --------   Above Full   Capacity
  Conduit                Both Ends  Upstream  Dnstream   Normal Flow   Limited
  ----------------------------------------------------------------------------
  H0014431                    0.25      0.26      0.25      0.26         0.23
  H0014433                    0.20      0.20      0.24      0.05         0.05
  H0014352                    0.10      0.10      0.13      0.01         0.01
  H0014373                    0.01      0.01      0.01      0.07         0.01
  H0017981                    0.14      0.18      0.14      0.27         0.16
  H0017755                    0.14      0.16      0.14      0.22         0.15
  H0017357                    0.10      0.10      0.20      0.12         0.01
  H0018216                    0.18      0.22      0.18      0.24         0.21
  H0016792                    0.05      0.05      0.10      0.01         0.01
  H0019507                    0.21      0.21      0.26      0.05         0.03
  H0019998                    0.03      0.03      0.10      0.01         0.01
  H0019576                    0.02      0.02      0.03      0.01         0.01
  H0020087                    0.07      0.07      0.08      0.01         0.01
  H0020211                    0.02      0.10      0.02      0.26         0.06
  H0018753                    0.20      0.20      0.26      0.01         0.01
  H0018863                    0.26      0.26      0.27      0.20         0.19
  H0018929                    0.01      0.01      0.01      0.01         0.01
  H0018440                    0.23      0.26      0.23      0.28         0.25
  H0018456                    0.12      0.13      0.12      0.16         0.13
  H0021806                    0.16      0.20      0.16      0.23         0.19
  H0022111                    0.08      0.08      0.09      0.05         0.04
  H0021440                    0.01      0.01      0.05      0.01         0.01
  H0021704                    0.01      0.01      0.01      0.15         0.01
  H0020521                    0.19      0.19      0.22      0.13         0.11
  H0020755                    0.13      0.13      0.13      0.06         0.05
  H0020530                    0.01      0.13      0.01      0.20         0.13
  H0020618                    0.03      0.03      0.03      0.08         0.02
  H0021163                    0.23      0.24      0.24      0.24         0.23
  H0020497                    0.01      0.01     73.83      0.01         0.01
  H0024325                    0.09      0.09      0.12      0.01         0.01
  H0023585                    0.12      0.14      0.12      0.14         0.14
  H0024098                    0.26      0.27      0.28      0.24         0.23
  H0024235                    0.09      0.09      0.09      0.11         0.08
  H0024498                    0.12      0.25      0.12      0.27         0.22
  H0026990                    0.09      0.09      0.13      0.01         0.01
  H0041011                    0.24      0.24      0.27      0.08         0.07
  H0045105                    0.09      0.09      0.11      0.01         0.01
  H0045106                    0.12      0.12      0.14      0.01         0.01
  H0045107                    0.23      0.23      0.25      0.11         0.09
  H0045108                    0.25      0.25      0.26      0.22         0.22
  

  Analysis begun on:  Fri Mar 22 15:55:42 2024
  Analysis ended on:  Fri Mar 22 15:55:53 2024
  Total elapsed time: 00:00:11