
  EPA STORM WATER MANAGEMENT MODEL - VERSION 5.2 (Build 5.2.4)
  PYSWMM TOOLKIT API - VERSION v1.0 (2023-11-27)
  ------------------------------------------------------------

  Gievenbeck_e2_T10D120 
  
  ****************
  Analysis Options
  ****************
  Flow Units ............... CMS
  Process Models:
    Rainfall/Runoff ........ YES
    RDII ................... NO
    Snowmelt ............... NO
    Groundwater ............ NO
    Flow Routing ........... YES
    Ponding Allowed ........ NO
    Water Quality .......... NO
  Infiltration Method ...... HORTON
  Flow Routing Method ...... DYNWAVE
  Surcharge Method ......... SLOT
  Starting Date ............ 01/01/2024 00:00:00
  Ending Date .............. 01/04/2024 04:00:00
  Antecedent Dry Days ...... 14.0
  Report Time Step ......... 00:01:00
  Wet Time Step ............ 00:01:00
  Dry Time Step ............ 00:01:00
  Routing Time Step ........ 1.00 sec
  Variable Time Step ....... YES
  Maximum Trials ........... 8
  Number of Threads ........ 1
  Head Tolerance ........... 0.001500 m
  
  
  **************************        Volume         Depth
  Runoff Quantity Continuity     hectare-m            mm
  **************************     ---------       -------
  Total Precipitation ......         0.341        33.680
  Evaporation Loss .........         0.010         0.954
  Infiltration Loss ........         0.168        16.624
  Surface Runoff ...........         0.163        16.148
  Final Storage ............         0.000         0.000
  Continuity Error (%) .....        -0.139
  
  
  **************************        Volume        Volume
  Flow Routing Continuity        hectare-m      10^6 ltr
  **************************     ---------     ---------
  Dry Weather Inflow .......         0.000         0.000
  Wet Weather Inflow .......         0.163         1.635
  Groundwater Inflow .......         0.000         0.000
  RDII Inflow ..............         0.000         0.000
  External Inflow ..........         0.000         0.000
  External Outflow .........         0.162         1.624
  Flooding Loss ............         0.001         0.010
  Evaporation Loss .........         0.000         0.000
  Exfiltration Loss ........         0.000         0.000
  Initial Stored Volume ....         0.000         0.000
  Final Stored Volume ......         0.000         0.000
  Continuity Error (%) .....         0.005
  
  
  *************************
  Highest Continuity Errors
  *************************
  Node R0019373 (1.79%)
  
  
  ***************************
  Time-Step Critical Elements
  ***************************
  None
  
  
  ********************************
  Highest Flow Instability Indexes
  ********************************
  All links are stable.
  
  
  *********************************
  Most Frequent Nonconverging Nodes
  *********************************
  Convergence obtained at all time steps.
  
  
  *************************
  Routing Time Step Summary
  *************************
  Minimum Time Step           :     0.12 sec
  Average Time Step           :     1.00 sec
  Maximum Time Step           :     1.00 sec
  % of Time in Steady State   :     0.00
  Average Iterations per Step :     2.00
  % of Steps Not Converging   :     0.00
  Time Step Frequencies       :
      1.000 -  0.871 sec      :    99.99 %
      0.871 -  0.758 sec      :     0.00 %
      0.758 -  0.660 sec      :     0.00 %
      0.660 -  0.574 sec      :     0.00 %
      0.574 -  0.500 sec      :     0.00 %
  
  
  ***************************
  Subcatchment Runoff Summary
  ***************************
  
  ------------------------------------------------------------------------------------------------------------------------------
                            Total      Total      Total      Total     Imperv       Perv      Total       Total     Peak  Runoff
                           Precip      Runon       Evap      Infil     Runoff     Runoff     Runoff      Runoff   Runoff   Coeff
  Subcatchment                 mm         mm         mm         mm         mm         mm         mm    10^6 ltr      CMS
  ------------------------------------------------------------------------------------------------------------------------------
  EZG_368                   33.68       0.00       0.95      16.75      15.92       2.49      16.03        0.07     0.10   0.476
  EZG_392                   33.68       0.00       0.95      16.64      15.93       2.61      16.14        0.05     0.08   0.479
  EZG_352                   33.68       0.00       0.95      16.92      15.91       2.32      15.85        0.09     0.13   0.471
  EZG_372                   33.68       0.00       0.93      16.25      15.95       3.00      16.56        0.02     0.04   0.492
  EZG_416                   33.68       0.00       0.94      16.59      15.93       2.66      16.20        0.05     0.07   0.481
  EZG_388                   33.68       0.00       0.95      16.80      15.92       2.44      15.98        0.07     0.10   0.474
  EZG_394                   33.68       0.00       0.94      16.57      15.93       2.68      16.22        0.04     0.07   0.482
  EZG_400                   33.68       0.00       0.94      16.54      15.93       2.71      16.26        0.04     0.06   0.483
  EZG_390                   33.68       0.00       0.94      16.63      15.93       2.62      16.16        0.05     0.08   0.480
  EZG_350                   33.68       0.00       0.95      16.80      15.92       2.44      15.97        0.07     0.10   0.474
  EZG_370                   33.68       0.00       0.95      16.69      15.93       2.56      16.09        0.06     0.08   0.478
  EZG_398                   33.68       0.00       0.93      16.12      15.95       3.14      16.70        0.02     0.03   0.496
  EZG_382                   33.68       0.00       0.93      16.07      15.96       3.19      16.75        0.01     0.02   0.497
  EZG_374                   33.68       0.00       1.14      13.63      19.10       2.72      18.96        0.07     0.10   0.563
  EZG_412                   33.68       0.00       0.92      15.76      15.97       3.51      17.09        0.01     0.01   0.507
  EZG_344                   33.68       0.00       0.94      16.53      15.93       2.72      16.26        0.04     0.06   0.483
  EZG_376                   33.68       0.00       0.94      16.42      15.94       2.83      16.38        0.03     0.05   0.486
  EZG_356                   33.68       0.00       0.96      16.96      15.91       2.28      15.81        0.10     0.14   0.469
  EZG_386                   33.68       0.00       0.96      17.06      15.91       2.17      15.70        0.13     0.17   0.466
  EZG_380                   33.68       0.00       0.95      16.72      15.92       2.52      16.05        0.06     0.09   0.477
  EZG_378                   33.68       0.00       0.95      16.67      15.93       2.58      16.12        0.06     0.08   0.479
  EZG_414                   33.68       0.00       0.93      16.07      15.96       3.19      16.76        0.01     0.02   0.498
  EZG_402                   33.68       0.00       0.95      16.64      15.93       2.60      16.14        0.05     0.08   0.479
  EZG_358                   33.68       0.00       0.96      16.95      15.91       2.29      15.81        0.10     0.14   0.469
  EZG_364                   33.68       0.00       0.96      16.95      15.91       2.29      15.81        0.10     0.14   0.469
  EZG_410                   33.68       0.00       0.94      16.44      15.94       2.81      16.35        0.03     0.05   0.486
  EZG_366                   33.68       0.00       0.94      16.50      15.94       2.75      16.29        0.04     0.06   0.484
  EZG_18259                 33.68       0.00       0.94      16.50      15.94       2.75      16.29        0.04     0.06   0.484
  EZG_18258                 33.68       0.00       0.93      15.93      15.96       3.34      16.91        0.01     0.02   0.502
  EZG_346                   33.68       0.00       0.93      17.00      15.61       2.53      15.80        0.06     0.08   0.469
  EZG_348                   33.68       0.00       0.92      16.77      15.62       2.76      16.04        0.04     0.05   0.476
  
  
  ******************
  Node Depth Summary
  ******************
  
  ---------------------------------------------------------------------------------
                                 Average  Maximum  Maximum  Time of Max    Reported
                                   Depth    Depth      HGL   Occurrence   Max Depth
  Node                 Type       Meters   Meters   Meters  days hr:min      Meters
  ---------------------------------------------------------------------------------
  R0019466             JUNCTION     0.00     1.08    70.53     0  02:45        1.07
  R0019468             JUNCTION     0.00     0.95    70.26     0  02:45        0.94
  R0019831             JUNCTION     0.00     1.47    70.64     0  02:44        1.46
  R0019825             JUNCTION     0.00     1.50    70.34     0  02:44        1.50
  R0019843             JUNCTION     0.00     0.65    68.28     0  02:45        0.65
  R0019368             JUNCTION     0.01     1.16    67.95     0  02:46        1.13
  R0019369             JUNCTION     0.01     0.66    67.25     0  02:46        0.64
  R0019370             JUNCTION     0.00     0.55    66.45     0  02:46        0.53
  R0019345             JUNCTION     0.00     0.72    70.62     0  02:45        0.70
  R0019346             JUNCTION     0.00     0.51    70.31     0  02:45        0.51
  R0043600             JUNCTION     0.00     0.52    70.19     0  02:45        0.51
  R0019203             JUNCTION     0.00     0.53    70.07     0  02:45        0.52
  R0043594             JUNCTION     0.00     0.39    70.12     0  02:45        0.38
  R0021458             JUNCTION     0.00     0.46    70.11     0  02:45        0.45
  R0019202             JUNCTION     0.00     0.50    70.08     0  02:45        0.49
  R0019373             JUNCTION     0.00     0.84    70.51     0  02:45        0.83
  R0019254             JUNCTION     0.00     1.43    71.47     0  02:45        1.39
  R0019716             JUNCTION     0.00     0.58    69.59     0  02:45        0.57
  R0019946             JUNCTION     0.01     0.82    69.44     0  02:45        0.81
  R0013935             JUNCTION     0.00     1.16    69.99     0  02:45        1.14
  R0019939             JUNCTION     0.00     1.23    69.80     0  02:45        1.21
  R0019944             JUNCTION     0.00     0.50    68.78     0  02:45        0.50
  R0043703             JUNCTION     0.00     0.62    69.22     0  02:45        0.62
  R0019945             JUNCTION     0.00     0.64    69.04     0  02:46        0.64
  R0039621             JUNCTION     0.00     0.25    69.82     0  02:45        0.25
  R0019838             JUNCTION     0.00     0.36    69.82     0  02:45        0.36
  R0039606             JUNCTION     0.00     0.49    70.08     0  02:45        0.48
  R0019204             JUNCTION     0.00     0.00    69.91     0  00:00        0.00
  R0019205             JUNCTION     0.00     0.00    69.62     0  00:00        0.00
  R0019849             JUNCTION     0.00     1.09    69.61     0  02:45        1.06
  R0019371             JUNCTION     0.00     0.00    70.41     0  00:00        0.00
  R0019718             JUNCTION     0.01     0.62    70.04     0  02:45        0.61
  R0021442             JUNCTION     0.01     2.05    72.10     0  02:43        2.05
  R0019247             JUNCTION     0.00     1.00    70.88     0  02:45        1.00
  R0019719             JUNCTION     0.00     0.44    70.12     0  02:45        0.44
  R0019767             JUNCTION     0.00     0.58    65.31     0  02:46        0.56
  R0019768             JUNCTION     0.00     0.48    64.25     0  02:46        0.48
  R0021453             JUNCTION     0.00     0.17    70.12     0  02:46        0.16
  R0019839             JUNCTION     0.00     0.33    69.72     0  02:45        0.33
  R0019717             JUNCTION     0.00     0.55    69.89     0  02:45        0.54
  R0019252             JUNCTION     0.00     1.60    71.79     0  02:45        1.55
  R0019721             JUNCTION     0.00     0.50    70.37     0  02:45        0.47
  R0019942             JUNCTION     0.00     1.11    69.76     0  02:45        1.07
  R0019206             JUNCTION     0.00     0.00    69.07     0  00:00        0.00
  R0019840             JUNCTION     0.00     0.39    69.36     0  02:45        0.33
  R0043702             JUNCTION     0.00     0.76    69.46     0  02:45        0.71
  R0019723             JUNCTION     0.00     0.33    70.41     0  02:45        0.32
  R0019724             JUNCTION     0.00     0.27    70.43     0  02:45        0.23
  R0021433             JUNCTION     0.00     2.15    72.54     0  02:43        2.15
  R0021435             JUNCTION     0.00     2.11    72.29     0  02:43        2.11
  R0019769             OUTFALL      0.00     0.48    63.86     0  02:46        0.48
  
  
  *******************
  Node Inflow Summary
  *******************
  
  -------------------------------------------------------------------------------------------------
                                  Maximum  Maximum                  Lateral       Total        Flow
                                  Lateral    Total  Time of Max      Inflow      Inflow     Balance
                                   Inflow   Inflow   Occurrence      Volume      Volume       Error
  Node                 Type           CMS      CMS  days hr:min    10^6 ltr    10^6 ltr     Percent
  -------------------------------------------------------------------------------------------------
  R0019466             JUNCTION     0.096    0.096     0  02:45      0.0662       0.106       0.098
  R0019468             JUNCTION     0.059    0.136     0  02:45       0.039       0.142      -0.036
  R0019831             JUNCTION     0.077    0.077     0  02:45      0.0523      0.0523       0.120
  R0019825             JUNCTION     0.078    0.154     0  02:45      0.0524       0.105       0.201
  R0019843             JUNCTION     0.000    1.912     0  02:46           0        1.62       0.020
  R0019368             JUNCTION     0.000    1.956     0  02:46           0        1.62      -0.007
  R0019369             JUNCTION     0.000    1.916     0  02:46           0        1.62      -0.014
  R0019370             JUNCTION     0.000    1.912     0  02:46           0        1.62       0.002
  R0019345             JUNCTION     0.000    0.140     0  02:45           0       0.102       0.050
  R0019346             JUNCTION     0.012    0.216     0  02:44     0.00682       0.173       0.004
  R0043600             JUNCTION     0.000    0.207     0  02:45           0        0.19      -0.084
  R0019203             JUNCTION     0.025    0.559     0  02:45      0.0148       0.456      -0.011
  R0043594             JUNCTION     0.131    0.191     0  02:45      0.0936       0.135      -0.024
  R0021458             JUNCTION     0.105    0.250     0  02:45      0.0733       0.208      -0.003
  R0019202             JUNCTION     0.036    0.339     0  02:45      0.0224        0.25      -0.451
  R0019373             JUNCTION     0.085    0.101     0  02:45      0.0577        0.06       1.822
  R0019254             JUNCTION     0.071    0.144     0  02:45      0.0472       0.102       0.056
  R0019716             JUNCTION     0.104    1.125     0  02:45      0.0728       0.924      -0.018
  R0019946             JUNCTION     0.000    1.124     0  02:45           0       0.924       0.008
  R0013935             JUNCTION     0.068    0.068     0  02:45       0.045       0.045       0.091
  R0019939             JUNCTION     0.027    0.091     0  02:45      0.0165      0.0615      -0.085
  R0019944             JUNCTION     0.063    1.408     0  02:45      0.0419        1.18       0.010
  R0043703             JUNCTION     0.076    1.181     0  02:45      0.0511       0.975       0.012
  R0019945             JUNCTION     0.000    1.370     0  02:45           0        1.14      -0.011
  R0039621             JUNCTION     0.000    0.008     0  02:41           0     0.00163       0.452
  R0019838             JUNCTION     0.140    0.140     0  02:45       0.101       0.103      -0.008
  R0039606             JUNCTION     0.000    0.227     0  02:46           0       0.208       0.047
  R0019204             JUNCTION     0.000    0.000     0  00:00           0           0       0.000 ltr
  R0019205             JUNCTION     0.000    0.000     0  00:00           0           0       0.000 ltr
  R0019849             JUNCTION     0.000    0.198     0  02:45           0       0.164       0.008
  R0019371             JUNCTION     0.000    0.000     0  00:00           0           0       0.000 ltr
  R0019718             JUNCTION     0.091    0.632     0  02:45      0.0625       0.518      -0.782
  R0021442             JUNCTION     0.103    0.175     0  02:45      0.0719       0.159       0.043
  R0019247             JUNCTION     0.051    0.208     0  02:45      0.0327        0.19       0.100
  R0019719             JUNCTION     0.053    0.269     0  02:45      0.0343       0.207       0.580
  R0019767             JUNCTION     0.000    1.913     0  02:46           0        1.62      -0.005
  R0019768             JUNCTION     0.000    1.912     0  02:46           0        1.62       0.009
  R0021453             JUNCTION     0.062    0.062     0  02:45      0.0411      0.0411      -0.078
  R0019839             JUNCTION     0.139    0.266     0  02:45         0.1       0.201       0.007
  R0019717             JUNCTION     0.170    1.034     0  02:45       0.125       0.854       0.339
  R0019252             JUNCTION     0.081    0.081     0  02:45      0.0552      0.0552      -0.041
  R0019721             JUNCTION     0.025    0.090     0  02:44      0.0146      0.0637       0.022
  R0019942             JUNCTION     0.000    0.121     0  02:44           0       0.102      -0.288
  R0019206             JUNCTION     0.000    0.000     0  00:00           0           0       0.000 ltr
  R0019840             JUNCTION     0.000    0.394     0  02:45           0       0.344      -0.001
  R0043702             JUNCTION     0.139    0.565     0  02:45         0.1       0.444       0.011
  R0019723             JUNCTION     0.059    0.074     0  02:44      0.0387      0.0491      -0.165
  R0019724             JUNCTION     0.018    0.018     0  02:45      0.0104      0.0104      -0.045
  R0021433             JUNCTION     0.084    0.084     0  02:45      0.0575      0.0575      -0.121
  R0021435             JUNCTION     0.055    0.126     0  02:45      0.0357      0.0924      -0.073
  R0019769             OUTFALL      0.000    1.919     0  02:46           0        1.62       0.000
  
  
  **********************
  Node Surcharge Summary
  **********************
  
  Surcharging occurs when water rises above the top of the highest conduit.
  ---------------------------------------------------------------------
                                               Max. Height   Min. Depth
                                   Hours       Above Crown    Below Rim
  Node                 Type      Surcharged         Meters       Meters
  ---------------------------------------------------------------------
  R0019466             JUNCTION        0.15          0.776        1.734
  R0019468             JUNCTION        0.15          0.647        1.783
  R0019831             JUNCTION        0.09          1.168        0.192
  R0019825             JUNCTION        0.13          1.200        0.000
  R0019368             JUNCTION        0.03          0.263        0.787
  R0019345             JUNCTION        0.09          0.420        1.330
  R0019346             JUNCTION        0.05          0.113        1.627
  R0043600             JUNCTION        0.07          0.122        2.458
  R0019373             JUNCTION        0.09          0.538        1.962
  R0019254             JUNCTION        0.11          1.132        0.698
  R0013935             JUNCTION        0.09          0.863        0.457
  R0019939             JUNCTION        0.15          0.934        0.686
  R0019849             JUNCTION        0.17          0.793        1.137
  R0021442             JUNCTION        0.17          1.750        0.000
  R0019247             JUNCTION        0.10          0.599        1.261
  R0019252             JUNCTION        0.09          1.299        0.341
  R0019721             JUNCTION        0.04          0.095        1.465
  R0019942             JUNCTION        0.13          0.807        0.843
  R0043702             JUNCTION        0.03          0.257        2.653
  R0021433             JUNCTION        0.12          1.850        0.000
  R0021435             JUNCTION        0.15          1.810        0.000
  
  
  *********************
  Node Flooding Summary
  *********************
  
  Flooding refers to all water that overflows a node, whether it ponds or not.
  --------------------------------------------------------------------------
                                                             Total   Maximum
                                 Maximum   Time of Max       Flood    Ponded
                        Hours       Rate    Occurrence      Volume     Depth
  Node                 Flooded       CMS   days hr:min    10^6 ltr    Meters
  --------------------------------------------------------------------------
  R0019825                0.03     0.041      0  02:45       0.003     0.000
  R0021442                0.03     0.018      0  02:45       0.001     0.000
  R0021433                0.03     0.014      0  02:43       0.001     0.000
  R0021435                0.04     0.054      0  02:45       0.006     0.000
  
  
  ***********************
  Outfall Loading Summary
  ***********************
  
  -----------------------------------------------------------
                         Flow       Avg       Max       Total
                         Freq      Flow      Flow      Volume
  Outfall Node           Pcnt       CMS       CMS    10^6 ltr
  -----------------------------------------------------------
  R0019769               5.77     0.104     1.919       1.624
  -----------------------------------------------------------
  System                 5.77     0.104     1.919       1.624
  
  
  ********************
  Link Flow Summary
  ********************
  
  -----------------------------------------------------------------------------
                                 Maximum  Time of Max   Maximum    Max/    Max/
                                  |Flow|   Occurrence   |Veloc|    Full    Full
  Link                 Type          CMS  days hr:min     m/sec    Flow   Depth
  -----------------------------------------------------------------------------
  H0014431             CONDUIT     0.077     0  02:45      1.09    1.42    1.00
  H0014433             CONDUIT     0.077     0  02:45      1.08    0.98    1.00
  H0014352             CONDUIT     1.956     0  02:46      3.23    0.80    0.97
  H0014373             CONDUIT     1.912     0  02:46      4.24    0.88    0.67
  H0017981             CONDUIT     0.140     0  02:45      1.99    3.97    1.00
  H0017755             CONDUIT     0.207     0  02:44      1.65    1.68    1.00
  H0017791             CONDUIT     0.148     0  02:44      0.67    0.22    0.47
  H0017357             CONDUIT     0.100     0  02:45      1.41    1.59    1.00
  H0018216             CONDUIT     0.140     0  02:45      1.98    2.54    1.00
  H0016792             CONDUIT     1.124     0  02:45      2.13    0.65    0.77
  H0019507             CONDUIT     0.064     0  02:45      0.91    0.89    1.00
  H0019998             CONDUIT     1.413     0  02:46      3.53    0.56    0.64
  H0019576             CONDUIT     1.184     0  02:46      2.50    0.80    0.70
  H0020087             CONDUIT     0.010     0  02:46      0.16    0.04    0.61
  H0020211             CONDUIT     1.131     0  02:46      2.10    2.82    0.80
  H0018982             CONDUIT     0.227     0  02:46      0.83    0.36    0.53
  H0018753             CONDUIT     0.039     0  02:41      0.63    0.55    1.00
  H0018845             CONDUIT     0.000     0  00:00      0.00    0.00    0.00
  H0018863             CONDUIT     0.088     0  02:45      1.25    2.08    1.00
  H0019156             CONDUIT     0.000     0  00:00      0.00    0.00    0.00
  H0018929             CONDUIT     0.560     0  02:45      1.35    0.49    0.63
  H0018440             CONDUIT     0.162     0  02:43      2.29    2.90    1.00
  H0018456             CONDUIT     0.217     0  02:45      1.73    1.32    1.00
  H0018968             CONDUIT     1.912     0  02:46      4.92    0.73    0.59
  H0022036             CONDUIT     0.061     0  02:45      0.51    0.05    0.28
  H0021806             CONDUIT     0.207     0  02:45      1.65    1.84    1.00
  H0022111             CONDUIT     0.129     0  02:45      0.90    0.92    0.69
  H0021440             CONDUIT     1.042     0  02:45      2.51    0.67    0.63
  H0021704             CONDUIT     0.638     0  02:46      1.58    1.22    0.63
  H0020521             CONDUIT     0.075     0  02:45      1.06    1.52    1.00
  H0020755             CONDUIT     0.087     0  02:47      0.75    0.95    1.00
  H0020530             CONDUIT     1.916     0  02:46      3.22    1.64    1.00
  H0020618             CONDUIT     1.368     0  02:46      3.27    0.85    0.63
  H0021163             CONDUIT     0.121     0  02:44      1.71    2.03    1.00
  H0020497             CONDUIT     0.000     0  00:00      0.00    0.00    1.00
  H0024325             CONDUIT     0.261     0  02:45      1.89    0.78    0.72
  H0023585             CONDUIT     0.501     0  02:45      2.59    1.15    1.00
  H0024098             CONDUIT     0.196     0  02:45      2.78    2.29    1.00
  H0024235             CONDUIT     0.265     0  02:45      1.48    1.08    0.86
  H0024282             CONDUIT     0.000     0  00:00      0.00    0.00    0.00
  H0024308             CONDUIT     1.919     0  02:46      5.52    0.56    0.54
  H0024498             CONDUIT     0.134     0  02:45      1.90    2.08    1.00
  H0026990             CONDUIT     0.067     0  02:44      0.78    0.51    1.00
  H0041650             CONDUIT     0.342     0  02:45      0.92    0.40    0.57
  H0041011             CONDUIT     0.117     0  02:44      1.65    1.16    1.00
  H0045103             CONDUIT     0.249     0  02:46      0.85    0.31    0.55
  H0045104             CONDUIT     1.913     0  02:46      4.59    0.68    0.62
  H0045105             CONDUIT     0.018     0  02:45      0.40    0.31    0.97
  H0045106             CONDUIT     0.465     0  02:45      2.38    0.63    1.00
  H0045107             CONDUIT     0.072     0  02:45      1.01    1.18    1.00
  H0045108             CONDUIT     0.090     0  02:46      1.28    1.63    1.00
  
  
  ***************************
  Flow Classification Summary
  ***************************
  
  -------------------------------------------------------------------------------------
                      Adjusted    ---------- Fraction of Time in Flow Class ---------- 
                       /Actual         Up    Down  Sub   Sup   Up    Down  Norm  Inlet 
  Conduit               Length    Dry  Dry   Dry   Crit  Crit  Crit  Crit  Ltd   Ctrl  
  -------------------------------------------------------------------------------------
  H0014431                1.00   0.03  0.00  0.00  0.97  0.00  0.00  0.00  0.97  0.00
  H0014433                1.00   0.03  0.00  0.00  0.97  0.00  0.00  0.00  0.97  0.00
  H0014352                1.00   0.03  0.00  0.00  0.94  0.04  0.00  0.00  0.97  0.00
  H0014373                1.00   0.03  0.00  0.00  0.92  0.05  0.00  0.00  0.90  0.00
  H0017981                1.00   0.03  0.00  0.00  0.00  0.00  0.00  0.97  0.00  0.00
  H0017755                1.00   0.03  0.00  0.00  0.00  0.00  0.00  0.97  0.00  0.00
  H0017791                1.00   0.03  0.00  0.00  0.97  0.00  0.00  0.00  0.97  0.00
  H0017357                1.00   0.03  0.97  0.00  0.00  0.00  0.00  0.00  0.96  0.00
  H0018216                1.00   0.03  0.91  0.00  0.06  0.00  0.00  0.00  0.97  0.00
  H0016792                1.00   0.03  0.90  0.00  0.06  0.00  0.00  0.00  0.97  0.00
  H0019507                1.00   0.03  0.00  0.00  0.97  0.00  0.00  0.00  0.97  0.00
  H0019998                1.00   0.03  0.00  0.00  0.92  0.05  0.00  0.00  0.06  0.00
  H0019576                1.00   0.03  0.00  0.00  0.94  0.03  0.00  0.00  0.06  0.00
  H0020087                1.00   0.03  0.95  0.00  0.02  0.00  0.00  0.00  0.96  0.00
  H0020211                1.00   0.03  0.00  0.00  0.97  0.00  0.00  0.00  0.90  0.00
  H0018982                1.00   0.03  0.00  0.00  0.97  0.00  0.00  0.00  0.93  0.00
  H0018753                1.00   0.03  0.00  0.00  0.97  0.00  0.00  0.00  0.97  0.00
  H0018845                1.00   1.00  0.00  0.00  0.00  0.00  0.00  0.00  0.00  0.00
  H0018863                1.00   0.03  0.00  0.00  0.97  0.00  0.00  0.00  0.96  0.00
  H0019156                1.00   1.00  0.00  0.00  0.00  0.00  0.00  0.00  0.00  0.00
  H0018929                1.00   0.03  0.91  0.00  0.06  0.00  0.00  0.00  0.97  0.00
  H0018440                1.00   0.03  0.00  0.00  0.97  0.00  0.00  0.00  0.96  0.00
  H0018456                1.00   0.03  0.00  0.00  0.97  0.00  0.00  0.00  0.96  0.00
  H0018968                1.00   0.03  0.00  0.00  0.91  0.06  0.00  0.00  0.92  0.00
  H0022036                1.00   0.03  0.00  0.00  0.02  0.00  0.00  0.95  0.02  0.00
  H0021806                1.00   0.03  0.91  0.00  0.06  0.00  0.00  0.00  0.95  0.00
  H0022111                1.00   0.03  0.00  0.00  0.97  0.00  0.00  0.00  0.00  0.00
  H0021440                1.00   0.03  0.00  0.00  0.94  0.04  0.00  0.00  0.02  0.00
  H0021704                1.00   0.03  0.00  0.00  0.00  0.00  0.00  0.97  0.00  0.00
  H0020521                1.00   0.03  0.00  0.00  0.97  0.00  0.00  0.00  0.97  0.00
  H0020755                1.00   0.03  0.92  0.00  0.05  0.00  0.00  0.00  0.97  0.00
  H0020530                1.00   0.03  0.00  0.00  0.94  0.03  0.00  0.00  0.01  0.00
  H0020618                1.00   0.03  0.00  0.00  0.93  0.04  0.00  0.00  0.92  0.00
  H0021163                1.00   0.03  0.00  0.00  0.96  0.01  0.00  0.00  0.92  0.00
  H0020497                1.20   0.03  0.97  0.00  0.00  0.00  0.00  0.00  0.00  0.00
  H0024325                1.00   0.03  0.00  0.00  0.93  0.04  0.00  0.00  0.93  0.00
  H0023585                1.00   0.03  0.00  0.00  0.00  0.00  0.00  0.97  0.00  0.00
  H0024098                1.00   0.03  0.91  0.00  0.06  0.00  0.00  0.00  0.96  0.00
  H0024235                1.00   0.03  0.00  0.00  0.00  0.00  0.00  0.97  0.00  0.00
  H0024282                1.00   1.00  0.00  0.00  0.00  0.00  0.00  0.00  0.00  0.00
  H0024308                1.00   0.03  0.00  0.00  0.90  0.07  0.00  0.00  0.01  0.00
  H0024498                1.00   0.03  0.00  0.00  0.00  0.00  0.00  0.97  0.00  0.00
  H0026990                1.00   0.03  0.00  0.00  0.97  0.00  0.00  0.00  0.97  0.00
  H0041650                1.00   0.94  0.01  0.00  0.05  0.00  0.00  0.00  0.96  0.00
  H0041011                1.00   0.03  0.00  0.00  0.97  0.00  0.00  0.00  0.96  0.00
  H0045103                1.00   0.03  0.00  0.00  0.97  0.00  0.00  0.00  0.93  0.00
  H0045104                1.00   0.03  0.00  0.00  0.91  0.06  0.00  0.00  0.06  0.00
  H0045105                1.00   0.03  0.00  0.00  0.97  0.00  0.00  0.00  0.97  0.00
  H0045106                1.00   0.03  0.91  0.00  0.02  0.04  0.00  0.00  0.97  0.00
  H0045107                1.00   0.03  0.00  0.00  0.97  0.00  0.00  0.00  0.97  0.00
  H0045108                1.00   0.03  0.00  0.00  0.97  0.00  0.00  0.00  0.97  0.00
  
  
  *************************
  Conduit Surcharge Summary
  *************************
  
  ----------------------------------------------------------------------------
                                                           Hours        Hours 
                         --------- Hours Full --------   Above Full   Capacity
  Conduit                Both Ends  Upstream  Dnstream   Normal Flow   Limited
  ----------------------------------------------------------------------------
  H0014431                    0.15      0.15      0.15      0.16         0.15
  H0014433                    0.09      0.09      0.13      0.01         0.01
  H0014352                    0.01      0.01      0.03      0.01         0.01
  H0017981                    0.05      0.09      0.05      0.18         0.08
  H0017755                    0.04      0.07      0.04      0.11         0.06
  H0017357                    0.01      0.01      0.09      0.05         0.01
  H0018216                    0.09      0.11      0.09      0.13         0.10
  H0019507                    0.09      0.09      0.15      0.01         0.01
  H0020211                    0.01      0.01      0.01      0.16         0.01
  H0018753                    0.09      0.09      0.15      0.01         0.01
  H0018863                    0.15      0.15      0.17      0.09         0.08
  H0018440                    0.13      0.17      0.13      0.20         0.16
  H0018456                    0.03      0.05      0.03      0.07         0.04
  H0021806                    0.07      0.10      0.07      0.12         0.09
  H0021704                    0.01      0.01      0.01      0.05         0.01
  H0020521                    0.09      0.09      0.11      0.07         0.07
  H0020755                    0.04      0.04      0.05      0.01         0.01
  H0020530                    0.01      0.03      0.01      0.09         0.01
  H0021163                    0.12      0.13      0.13      0.13         0.11
  H0023585                    0.01      0.03      0.01      0.05         0.02
  H0024098                    0.17      0.17      0.20      0.13         0.12
  H0024235                    0.01      0.01      0.01      0.03         0.01
  H0024498                    0.01      0.15      0.01      0.18         0.11
  H0026990                    0.01      0.01      0.04      0.01         0.01
  H0041011                    0.13      0.13      0.17      0.05         0.05
  H0045105                    0.01      0.01      0.01      0.01         0.01
  H0045106                    0.01      0.01      0.03      0.01         0.01
  H0045107                    0.12      0.12      0.15      0.03         0.03
  H0045108                    0.15      0.15      0.17      0.11         0.11
  

  Analysis begun on:  Fri Mar 22 15:55:22 2024
  Analysis ended on:  Fri Mar 22 15:55:31 2024
  Total elapsed time: 00:00:09