
  EPA STORM WATER MANAGEMENT MODEL - VERSION 5.2 (Build 5.2.4)
  PYSWMM TOOLKIT API - VERSION v1.0 (2023-11-27)
  ------------------------------------------------------------

  Gievenbeck_e2_T30D30 
  
  ****************
  Analysis Options
  ****************
  Flow Units ............... CMS
  Process Models:
    Rainfall/Runoff ........ YES
    RDII ................... NO
    Snowmelt ............... NO
    Groundwater ............ NO
    Flow Routing ........... YES
    Ponding Allowed ........ NO
    Water Quality .......... NO
  Infiltration Method ...... HORTON
  Flow Routing Method ...... DYNWAVE
  Surcharge Method ......... SLOT
  Starting Date ............ 01/01/2024 00:00:00
  Ending Date .............. 01/04/2024 04:00:00
  Antecedent Dry Days ...... 14.0
  Report Time Step ......... 00:01:00
  Wet Time Step ............ 00:01:00
  Dry Time Step ............ 00:01:00
  Routing Time Step ........ 1.00 sec
  Variable Time Step ....... YES
  Maximum Trials ........... 8
  Number of Threads ........ 1
  Head Tolerance ........... 0.001500 m
  
  
  **************************        Volume         Depth
  Runoff Quantity Continuity     hectare-m            mm
  **************************     ---------       -------
  Total Precipitation ......         0.299        29.500
  Evaporation Loss .........         0.010         0.968
  Infiltration Loss ........         0.129        12.697
  Surface Runoff ...........         0.161        15.911
  Final Storage ............         0.000         0.000
  Continuity Error (%) .....        -0.258
  
  
  **************************        Volume        Volume
  Flow Routing Continuity        hectare-m      10^6 ltr
  **************************     ---------     ---------
  Dry Weather Inflow .......         0.000         0.000
  Wet Weather Inflow .......         0.161         1.611
  Groundwater Inflow .......         0.000         0.000
  RDII Inflow ..............         0.000         0.000
  External Inflow ..........         0.000         0.000
  External Outflow .........         0.158         1.579
  Flooding Loss ............         0.003         0.034
  Evaporation Loss .........         0.000         0.000
  Exfiltration Loss ........         0.000         0.000
  Initial Stored Volume ....         0.000         0.000
  Final Stored Volume ......         0.000         0.000
  Continuity Error (%) .....        -0.139
  
  
  *************************
  Highest Continuity Errors
  *************************
  Node R0019373 (1.72%)
  Node R0019718 (-1.56%)
  
  
  ***************************
  Time-Step Critical Elements
  ***************************
  None
  
  
  ********************************
  Highest Flow Instability Indexes
  ********************************
  All links are stable.
  
  
  *********************************
  Most Frequent Nonconverging Nodes
  *********************************
  Convergence obtained at all time steps.
  
  
  *************************
  Routing Time Step Summary
  *************************
  Minimum Time Step           :     0.27 sec
  Average Time Step           :     1.00 sec
  Maximum Time Step           :     1.00 sec
  % of Time in Steady State   :     0.00
  Average Iterations per Step :     2.00
  % of Steps Not Converging   :     0.00
  Time Step Frequencies       :
      1.000 -  0.871 sec      :    99.99 %
      0.871 -  0.758 sec      :     0.00 %
      0.758 -  0.660 sec      :     0.00 %
      0.660 -  0.574 sec      :     0.00 %
      0.574 -  0.500 sec      :     0.00 %
  
  
  ***************************
  Subcatchment Runoff Summary
  ***************************
  
  ------------------------------------------------------------------------------------------------------------------------------
                            Total      Total      Total      Total     Imperv       Perv      Total       Total     Peak  Runoff
                           Precip      Runon       Evap      Infil     Runoff     Runoff     Runoff      Runoff   Runoff   Coeff
  Subcatchment                 mm         mm         mm         mm         mm         mm         mm    10^6 ltr      CMS
  ------------------------------------------------------------------------------------------------------------------------------
  EZG_368                   29.50       0.00       0.96      12.80      13.85       4.03      15.81        0.07     0.12   0.536
  EZG_392                   29.50       0.00       0.96      12.66      13.86       4.18      15.96        0.05     0.10   0.541
  EZG_352                   29.50       0.00       0.97      13.02      13.84       3.81      15.58        0.09     0.16   0.528
  EZG_372                   29.50       0.00       0.94      12.22      13.88       4.63      16.43        0.02     0.05   0.557
  EZG_416                   29.50       0.00       0.96      12.60      13.86       4.24      16.02        0.05     0.09   0.543
  EZG_388                   29.50       0.00       0.96      12.86      13.85       3.97      15.75        0.07     0.13   0.534
  EZG_394                   29.50       0.00       0.96      12.58      13.86       4.27      16.05        0.04     0.09   0.544
  EZG_400                   29.50       0.00       0.95      12.54      13.87       4.31      16.09        0.04     0.08   0.546
  EZG_390                   29.50       0.00       0.96      12.65      13.86       4.19      15.97        0.05     0.10   0.541
  EZG_350                   29.50       0.00       0.96      12.87      13.85       3.97      15.74        0.07     0.13   0.534
  EZG_370                   29.50       0.00       0.96      12.72      13.86       4.12      15.90        0.06     0.11   0.539
  EZG_398                   29.50       0.00       0.94      12.09      13.89       4.77      16.57        0.02     0.03   0.562
  EZG_382                   29.50       0.00       0.94      12.05      13.89       4.81      16.62        0.01     0.03   0.563
  EZG_374                   29.50       0.00       1.16      10.22      16.62       4.09      18.21        0.07     0.13   0.617
  EZG_412                   29.50       0.00       0.93      11.79      13.91       5.09      16.91        0.01     0.02   0.573
  EZG_344                   29.50       0.00       0.95      12.53      13.87       4.32      16.10        0.04     0.08   0.546
  EZG_376                   29.50       0.00       0.95      12.41      13.87       4.44      16.23        0.03     0.06   0.550
  EZG_356                   29.50       0.00       0.97      13.07      13.84       3.76      15.52        0.10     0.18   0.526
  EZG_386                   29.50       0.00       0.98      13.22      13.83       3.61      15.37        0.12     0.21   0.521
  EZG_380                   29.50       0.00       0.96      12.77      13.86       4.07      15.85        0.06     0.11   0.537
  EZG_378                   29.50       0.00       0.96      12.69      13.86       4.14      15.92        0.05     0.10   0.540
  EZG_414                   29.50       0.00       0.94      12.04      13.89       4.82      16.63        0.01     0.03   0.564
  EZG_402                   29.50       0.00       0.96      12.66      13.86       4.18      15.96        0.05     0.10   0.541
  EZG_358                   29.50       0.00       0.97      13.07      13.84       3.76      15.53        0.10     0.17   0.526
  EZG_364                   29.50       0.00       0.97      13.07      13.84       3.76      15.53        0.10     0.17   0.526
  EZG_410                   29.50       0.00       0.95      12.43      13.87       4.42      16.21        0.03     0.07   0.549
  EZG_366                   29.50       0.00       0.95      12.50      13.87       4.35      16.13        0.04     0.08   0.547
  EZG_18259                 29.50       0.00       0.95      12.49      13.87       4.35      16.14        0.04     0.07   0.547
  EZG_18258                 29.50       0.00       0.94      11.92      13.90       4.95      16.76        0.01     0.02   0.568
  EZG_346                   29.50       0.00       0.94      12.98      13.58       4.11      15.65        0.06     0.11   0.531
  EZG_348                   29.50       0.00       0.93      12.71      13.59       4.39      15.94        0.04     0.07   0.540
  
  
  ******************
  Node Depth Summary
  ******************
  
  ---------------------------------------------------------------------------------
                                 Average  Maximum  Maximum  Time of Max    Reported
                                   Depth    Depth      HGL   Occurrence   Max Depth
  Node                 Type       Meters   Meters   Meters  days hr:min      Meters
  ---------------------------------------------------------------------------------
  R0019466             JUNCTION     0.00     1.54    70.99     0  02:15        1.53
  R0019468             JUNCTION     0.00     1.42    70.73     0  02:15        1.38
  R0019831             JUNCTION     0.00     1.63    70.80     0  02:15        1.63
  R0019825             JUNCTION     0.00     1.50    70.34     0  02:13        1.50
  R0019843             JUNCTION     0.00     1.35    68.98     0  02:15        1.11
  R0019368             JUNCTION     0.01     1.50    68.29     0  02:15        1.31
  R0019369             JUNCTION     0.00     0.75    67.34     0  02:16        0.74
  R0019370             JUNCTION     0.00     0.60    66.50     0  02:16        0.58
  R0019345             JUNCTION     0.00     1.13    71.03     0  02:15        1.08
  R0019346             JUNCTION     0.00     0.90    70.70     0  02:15        0.85
  R0043600             JUNCTION     0.00     0.60    70.27     0  02:15        0.59
  R0019203             JUNCTION     0.00     0.61    70.15     0  02:15        0.60
  R0043594             JUNCTION     0.00     0.47    70.20     0  02:16        0.47
  R0021458             JUNCTION     0.00     0.53    70.18     0  02:16        0.53
  R0019202             JUNCTION     0.00     0.58    70.16     0  02:15        0.57
  R0019373             JUNCTION     0.00     1.27    70.94     0  02:15        1.25
  R0019254             JUNCTION     0.00     1.90    71.94     0  02:15        1.88
  R0019716             JUNCTION     0.00     0.71    69.72     0  02:15        0.71
  R0019946             JUNCTION     0.00     0.97    69.59     0  02:15        0.97
  R0013935             JUNCTION     0.00     1.54    70.37     0  02:15        1.51
  R0019939             JUNCTION     0.00     1.51    70.08     0  02:15        1.47
  R0019944             JUNCTION     0.00     0.62    68.90     0  02:16        0.61
  R0043703             JUNCTION     0.00     0.72    69.32     0  02:15        0.72
  R0019945             JUNCTION     0.00     0.74    69.14     0  02:16        0.73
  R0039621             JUNCTION     0.00     0.71    70.28     0  02:15        0.61
  R0019838             JUNCTION     0.00     0.83    70.29     0  02:15        0.63
  R0039606             JUNCTION     0.00     0.57    70.16     0  02:15        0.56
  R0019204             JUNCTION     0.00     0.00    69.91     0  00:00        0.00
  R0019205             JUNCTION     0.00     0.00    69.62     0  00:00        0.00
  R0019849             JUNCTION     0.00     1.25    69.77     0  02:15        1.21
  R0019371             JUNCTION     0.00     0.00    70.41     0  00:00        0.00
  R0019718             JUNCTION     0.00     0.70    70.12     0  02:15        0.70
  R0021442             JUNCTION     0.00     2.05    72.10     0  02:13        2.05
  R0019247             JUNCTION     0.00     1.12    71.00     0  02:15        1.11
  R0019719             JUNCTION     0.00     0.68    70.36     0  02:15        0.67
  R0019767             JUNCTION     0.00     0.64    65.37     0  02:16        0.63
  R0019768             JUNCTION     0.00     0.53    64.30     0  02:16        0.52
  R0021453             JUNCTION     0.00     0.26    70.21     0  02:15        0.25
  R0019839             JUNCTION     0.00     0.81    70.20     0  02:15        0.77
  R0019717             JUNCTION     0.00     0.65    69.99     0  02:15        0.63
  R0019252             JUNCTION     0.00     1.94    72.13     0  02:14        1.94
  R0019721             JUNCTION     0.00     0.96    70.83     0  02:15        0.89
  R0019942             JUNCTION     0.00     1.23    69.88     0  02:15        1.20
  R0019206             JUNCTION     0.00     0.00    69.07     0  00:00        0.00
  R0019840             JUNCTION     0.00     1.02    69.99     0  02:15        0.95
  R0043702             JUNCTION     0.00     1.23    69.93     0  02:15        1.14
  R0019723             JUNCTION     0.00     0.83    70.91     0  02:15        0.81
  R0019724             JUNCTION     0.00     0.77    70.93     0  02:15        0.70
  R0021433             JUNCTION     0.00     2.15    72.54     0  02:13        2.15
  R0021435             JUNCTION     0.00     2.11    72.29     0  02:13        2.11
  R0019769             OUTFALL      0.00     0.53    63.91     0  02:16        0.52
  
  
  *******************
  Node Inflow Summary
  *******************
  
  -------------------------------------------------------------------------------------------------
                                  Maximum  Maximum                  Lateral       Total        Flow
                                  Lateral    Total  Time of Max      Inflow      Inflow     Balance
                                   Inflow   Inflow   Occurrence      Volume      Volume       Error
  Node                 Type           CMS      CMS  days hr:min    10^6 ltr    10^6 ltr     Percent
  -------------------------------------------------------------------------------------------------
  R0019466             JUNCTION     0.121    0.121     0  02:15      0.0653      0.0926       0.150
  R0019468             JUNCTION     0.075    0.154     0  02:15      0.0386       0.124      -0.098
  R0019831             JUNCTION     0.098    0.098     0  02:15      0.0517      0.0517       0.146
  R0019825             JUNCTION     0.098    0.194     0  02:15      0.0518       0.103       0.212
  R0019843             JUNCTION     0.000    2.246     0  02:16           0        1.58       0.010
  R0019368             JUNCTION     0.000    2.209     0  02:16           0        1.58      -0.025
  R0019369             JUNCTION     0.000    2.224     0  02:15           0        1.58      -0.037
  R0019370             JUNCTION     0.000    2.200     0  02:16           0        1.58       0.004
  R0019345             JUNCTION     0.000    0.158     0  02:14           0      0.0991       0.016
  R0019346             JUNCTION     0.015    0.278     0  02:15     0.00675       0.169       0.027
  R0043600             JUNCTION     0.000    0.213     0  02:14           0       0.173      -0.105
  R0019203             JUNCTION     0.031    0.661     0  02:15      0.0147       0.452      -0.004
  R0043594             JUNCTION     0.164    0.225     0  02:14       0.092       0.133      -0.128
  R0021458             JUNCTION     0.132    0.294     0  02:14      0.0723       0.205      -0.010
  R0019202             JUNCTION     0.046    0.433     0  02:15      0.0222       0.263      -0.461
  R0019373             JUNCTION     0.107    0.145     0  02:15       0.057      0.0637       1.747
  R0019254             JUNCTION     0.089    0.163     0  02:14      0.0467      0.0991       0.055
  R0019716             JUNCTION     0.131    1.366     0  02:15      0.0718       0.914      -0.027
  R0019946             JUNCTION     0.000    1.347     0  02:15           0       0.914       0.020
  R0013935             JUNCTION     0.085    0.085     0  02:15      0.0445      0.0445       0.150
  R0019939             JUNCTION     0.035    0.114     0  02:15      0.0164      0.0609      -0.122
  R0019944             JUNCTION     0.080    1.658     0  02:16      0.0415        1.16       0.030
  R0043703             JUNCTION     0.096    1.414     0  02:15      0.0505       0.964       0.003
  R0019945             JUNCTION     0.000    1.611     0  02:16           0        1.12      -0.006
  R0039621             JUNCTION     0.000    0.066     0  02:15           0      0.0033      -1.449
  R0019838             JUNCTION     0.176    0.176     0  02:15      0.0995       0.103      -0.166
  R0039606             JUNCTION     0.000    0.285     0  02:16           0       0.205       0.103
  R0019204             JUNCTION     0.000    0.000     0  00:00           0           0       0.000 ltr
  R0019205             JUNCTION     0.000    0.000     0  00:00           0           0       0.000 ltr
  R0019849             JUNCTION     0.000    0.209     0  02:15           0       0.154       0.032
  R0019371             JUNCTION     0.000    0.000     0  00:00           0           0       0.000 ltr
  R0019718             JUNCTION     0.115    0.745     0  02:15      0.0617       0.513      -1.536
  R0021442             JUNCTION     0.129    0.201     0  02:15       0.069       0.146       0.084
  R0019247             JUNCTION     0.064    0.215     0  02:15      0.0324       0.173       0.082
  R0019719             JUNCTION     0.067    0.339     0  02:15       0.034       0.203       0.740
  R0019767             JUNCTION     0.000    2.205     0  02:16           0        1.58      -0.006
  R0019768             JUNCTION     0.000    2.225     0  02:16           0        1.58       0.016
  R0021453             JUNCTION     0.079    0.079     0  02:15      0.0407      0.0407      -0.025
  R0019839             JUNCTION     0.175    0.320     0  02:14      0.0983       0.198       0.065
  R0019717             JUNCTION     0.213    1.256     0  02:15       0.123       0.846       0.430
  R0019252             JUNCTION     0.103    0.103     0  02:15      0.0546      0.0546      -0.059
  R0019721             JUNCTION     0.031    0.118     0  02:15      0.0145      0.0633       0.188
  R0019942             JUNCTION     0.000    0.125     0  02:13           0      0.0926      -0.367
  R0019206             JUNCTION     0.000    0.000     0  00:00           0           0       0.000 ltr
  R0019840             JUNCTION     0.000    0.440     0  02:14           0       0.322      -0.010
  R0043702             JUNCTION     0.175    0.591     0  02:14      0.0984       0.421       0.326
  R0019723             JUNCTION     0.075    0.096     0  02:14      0.0383      0.0487      -0.358
  R0019724             JUNCTION     0.023    0.027     0  02:14      0.0103      0.0103      -0.471
  R0021433             JUNCTION     0.106    0.106     0  02:15       0.057       0.057      -0.047
  R0021435             JUNCTION     0.069    0.141     0  02:15      0.0355      0.0886      -0.186
  R0019769             OUTFALL      0.000    2.235     0  02:16           0        1.58       0.000
  
  
  **********************
  Node Surcharge Summary
  **********************
  
  Surcharging occurs when water rises above the top of the highest conduit.
  ---------------------------------------------------------------------
                                               Max. Height   Min. Depth
                                   Hours       Above Crown    Below Rim
  Node                 Type      Surcharged         Meters       Meters
  ---------------------------------------------------------------------
  R0019466             JUNCTION        0.21          1.239        1.271
  R0019468             JUNCTION        0.20          1.124        1.306
  R0019831             JUNCTION        0.13          1.331        0.029
  R0019825             JUNCTION        0.17          1.200        0.000
  R0019843             JUNCTION        0.04          0.449        2.171
  R0019368             JUNCTION        0.08          0.602        0.448
  R0019345             JUNCTION        0.12          0.830        0.920
  R0019346             JUNCTION        0.08          0.502        1.238
  R0043600             JUNCTION        0.10          0.205        2.375
  R0019373             JUNCTION        0.13          0.969        1.531
  R0019254             JUNCTION        0.15          1.598        0.232
  R0019946             JUNCTION        0.04          0.068        1.452
  R0013935             JUNCTION        0.13          1.237        0.083
  R0019939             JUNCTION        0.21          1.206        0.414
  R0039621             JUNCTION        0.02          0.207        0.853
  R0019838             JUNCTION        0.03          0.330        0.970
  R0019849             JUNCTION        0.22          0.952        0.978
  R0021442             JUNCTION        0.24          1.750        0.000
  R0019247             JUNCTION        0.13          0.716        1.144
  R0019719             JUNCTION        0.03          0.182        1.618
  R0019839             JUNCTION        0.03          0.308        1.342
  R0019252             JUNCTION        0.12          1.640        0.000
  R0019721             JUNCTION        0.07          0.559        1.001
  R0019942             JUNCTION        0.18          0.934        0.716
  R0019840             JUNCTION        0.06          0.525        2.045
  R0043702             JUNCTION        0.08          0.730        2.180
  R0019723             JUNCTION        0.04          0.430        0.890
  R0019724             JUNCTION        0.04          0.474        0.976
  R0021433             JUNCTION        0.17          1.850        0.000
  R0021435             JUNCTION        0.21          1.810        0.000
  
  
  *********************
  Node Flooding Summary
  *********************
  
  Flooding refers to all water that overflows a node, whether it ponds or not.
  --------------------------------------------------------------------------
                                                             Total   Maximum
                                 Maximum   Time of Max       Flood    Ponded
                        Hours       Rate    Occurrence      Volume     Depth
  Node                 Flooded       CMS   days hr:min    10^6 ltr    Meters
  --------------------------------------------------------------------------
  R0019825                0.06     0.091      0  02:15       0.011     0.000
  R0021442                0.05     0.050      0  02:15       0.005     0.000
  R0019252                0.03     0.036      0  02:15       0.002     0.000
  R0021433                0.05     0.035      0  02:15       0.004     0.000
  R0021435                0.07     0.068      0  02:15       0.012     0.000
  
  
  ***********************
  Outfall Loading Summary
  ***********************
  
  -----------------------------------------------------------
                         Flow       Avg       Max       Total
                         Freq      Flow      Flow      Volume
  Outfall Node           Pcnt       CMS       CMS    10^6 ltr
  -----------------------------------------------------------
  R0019769               4.13     0.140     2.235       1.579
  -----------------------------------------------------------
  System                 4.13     0.140     2.235       1.579
  
  
  ********************
  Link Flow Summary
  ********************
  
  -----------------------------------------------------------------------------
                                 Maximum  Time of Max   Maximum    Max/    Max/
                                  |Flow|   Occurrence   |Veloc|    Full    Full
  Link                 Type          CMS  days hr:min     m/sec    Flow   Depth
  -----------------------------------------------------------------------------
  H0014431             CONDUIT     0.084     0  02:11      1.19    1.56    1.00
  H0014433             CONDUIT     0.097     0  02:15      1.37    1.24    1.00
  H0014352             CONDUIT     2.209     0  02:16      3.47    0.90    1.00
  H0014373             CONDUIT     2.200     0  02:16      4.32    1.02    0.75
  H0017981             CONDUIT     0.153     0  02:14      2.17    4.34    1.00
  H0017755             CONDUIT     0.212     0  02:15      1.69    1.72    1.00
  H0017791             CONDUIT     0.183     0  02:16      0.71    0.27    0.55
  H0017357             CONDUIT     0.142     0  02:15      2.00    2.26    1.00
  H0018216             CONDUIT     0.158     0  02:14      2.24    2.88    1.00
  H0016792             CONDUIT     1.347     0  02:15      2.18    0.77    0.93
  H0019507             CONDUIT     0.081     0  02:15      1.14    1.12    1.00
  H0019998             CONDUIT     1.750     0  02:16      3.42    0.70    1.00
  H0019576             CONDUIT     1.416     0  02:16      2.57    0.95    0.81
  H0020087             CONDUIT     0.066     0  02:15      0.33    0.29    1.00
  H0020211             CONDUIT     1.348     0  02:15      2.18    3.36    0.94
  H0018982             CONDUIT     0.285     0  02:16      0.89    0.46    0.61
  H0018753             CONDUIT     0.042     0  02:11      0.67    0.59    1.00
  H0018845             CONDUIT     0.000     0  00:00      0.00    0.00    0.00
  H0018863             CONDUIT     0.111     0  02:15      1.57    2.61    1.00
  H0019156             CONDUIT     0.000     0  00:00      0.00    0.00    0.00
  H0018929             CONDUIT     0.654     0  02:15      1.39    0.57    0.73
  H0018440             CONDUIT     0.161     0  02:13      2.27    2.88    1.00
  H0018456             CONDUIT     0.279     0  02:15      2.22    1.69    1.00
  H0018968             CONDUIT     2.225     0  02:16      5.07    0.85    0.65
  H0022036             CONDUIT     0.071     0  02:14      0.59    0.05    0.39
  H0021806             CONDUIT     0.213     0  02:14      1.69    1.89    1.00
  H0022111             CONDUIT     0.169     0  02:15      0.93    1.21    1.00
  H0021440             CONDUIT     1.258     0  02:15      2.52    0.81    0.75
  H0021704             CONDUIT     0.747     0  02:15      1.63    1.42    0.73
  H0020521             CONDUIT     0.082     0  02:14      1.15    1.65    1.00
  H0020755             CONDUIT     0.118     0  02:15      0.94    1.30    1.00
  H0020530             CONDUIT     2.224     0  02:15      3.50    1.90    1.00
  H0020618             CONDUIT     1.608     0  02:16      3.31    1.00    0.75
  H0021163             CONDUIT     0.125     0  02:13      1.77    2.09    1.00
  H0020497             CONDUIT     0.000     0  00:00      0.00    0.00    1.00
  H0024325             CONDUIT     0.297     0  02:14      1.87    0.88    1.00
  H0023585             CONDUIT     0.572     0  02:15      2.91    1.31    1.00
  H0024098             CONDUIT     0.207     0  02:15      2.93    2.42    1.00
  H0024235             CONDUIT     0.340     0  02:15      1.73    1.39    1.00
  H0024282             CONDUIT     0.000     0  00:00      0.00    0.00    0.00
  H0024308             CONDUIT     2.235     0  02:16      5.72    0.65    0.59
  H0024498             CONDUIT     0.151     0  02:15      2.13    2.33    1.00
  H0026990             CONDUIT     0.091     0  02:15      0.86    0.69    1.00
  H0041650             CONDUIT     0.429     0  02:15      1.01    0.50    0.66
  H0041011             CONDUIT     0.119     0  02:13      1.68    1.17    1.00
  H0045103             CONDUIT     0.309     0  02:16      0.87    0.39    0.64
  H0045104             CONDUIT     2.205     0  02:16      4.71    0.78    0.69
  H0045105             CONDUIT     0.024     0  02:15      0.42    0.42    1.00
  H0045106             CONDUIT     0.427     0  02:14      2.38    0.57    1.00
  H0045107             CONDUIT     0.072     0  02:15      1.01    1.18    1.00
  H0045108             CONDUIT     0.089     0  02:17      1.27    1.61    1.00
  
  
  ***************************
  Flow Classification Summary
  ***************************
  
  -------------------------------------------------------------------------------------
                      Adjusted    ---------- Fraction of Time in Flow Class ---------- 
                       /Actual         Up    Down  Sub   Sup   Up    Down  Norm  Inlet 
  Conduit               Length    Dry  Dry   Dry   Crit  Crit  Crit  Crit  Ltd   Ctrl  
  -------------------------------------------------------------------------------------
  H0014431                1.00   0.03  0.00  0.00  0.97  0.00  0.00  0.00  0.97  0.00
  H0014433                1.00   0.03  0.00  0.00  0.97  0.00  0.00  0.00  0.97  0.00
  H0014352                1.00   0.03  0.00  0.00  0.95  0.02  0.00  0.00  0.97  0.00
  H0014373                1.00   0.03  0.00  0.00  0.94  0.04  0.00  0.00  0.92  0.00
  H0017981                1.00   0.03  0.00  0.00  0.00  0.00  0.00  0.97  0.00  0.00
  H0017755                1.00   0.03  0.00  0.00  0.00  0.00  0.00  0.97  0.00  0.00
  H0017791                1.00   0.03  0.00  0.00  0.97  0.00  0.00  0.00  0.97  0.00
  H0017357                1.00   0.03  0.97  0.00  0.00  0.00  0.00  0.00  0.97  0.00
  H0018216                1.00   0.03  0.93  0.00  0.04  0.00  0.00  0.00  0.97  0.00
  H0016792                1.00   0.03  0.92  0.00  0.05  0.00  0.00  0.00  0.97  0.00
  H0019507                1.00   0.03  0.00  0.00  0.97  0.00  0.00  0.00  0.97  0.00
  H0019998                1.00   0.03  0.00  0.00  0.94  0.03  0.00  0.00  0.05  0.00
  H0019576                1.00   0.03  0.00  0.00  0.96  0.01  0.00  0.00  0.05  0.00
  H0020087                1.00   0.03  0.96  0.00  0.01  0.00  0.00  0.00  0.97  0.00
  H0020211                1.00   0.03  0.00  0.00  0.97  0.00  0.00  0.00  0.92  0.00
  H0018982                1.00   0.03  0.00  0.00  0.97  0.00  0.00  0.00  0.94  0.00
  H0018753                1.00   0.03  0.00  0.00  0.97  0.00  0.00  0.00  0.97  0.00
  H0018845                1.00   1.00  0.00  0.00  0.00  0.00  0.00  0.00  0.00  0.00
  H0018863                1.00   0.03  0.00  0.00  0.97  0.00  0.00  0.00  0.97  0.00
  H0019156                1.00   1.00  0.00  0.00  0.00  0.00  0.00  0.00  0.00  0.00
  H0018929                1.00   0.03  0.93  0.00  0.04  0.00  0.00  0.00  0.97  0.00
  H0018440                1.00   0.03  0.00  0.00  0.97  0.00  0.00  0.00  0.97  0.00
  H0018456                1.00   0.03  0.00  0.00  0.97  0.00  0.00  0.00  0.97  0.00
  H0018968                1.00   0.03  0.92  0.00  0.02  0.04  0.00  0.00  0.94  0.00
  H0022036                1.00   0.03  0.00  0.00  0.01  0.00  0.00  0.96  0.01  0.00
  H0021806                1.00   0.03  0.93  0.00  0.04  0.00  0.00  0.00  0.97  0.00
  H0022111                1.00   0.03  0.00  0.00  0.97  0.00  0.00  0.00  0.00  0.00
  H0021440                1.00   0.03  0.00  0.00  0.95  0.02  0.00  0.00  0.02  0.00
  H0021704                1.00   0.03  0.00  0.00  0.00  0.00  0.00  0.97  0.00  0.00
  H0020521                1.00   0.03  0.00  0.00  0.97  0.00  0.00  0.00  0.97  0.00
  H0020755                1.00   0.03  0.94  0.00  0.04  0.00  0.00  0.00  0.97  0.00
  H0020530                1.00   0.03  0.00  0.00  0.96  0.02  0.00  0.00  0.00  0.00
  H0020618                1.00   0.03  0.00  0.00  0.95  0.03  0.00  0.00  0.93  0.00
  H0021163                1.00   0.03  0.00  0.00  0.97  0.00  0.00  0.00  0.94  0.00
  H0020497                1.20   0.03  0.97  0.00  0.00  0.00  0.00  0.00  0.00  0.00
  H0024325                1.00   0.03  0.00  0.00  0.95  0.02  0.00  0.00  0.94  0.00
  H0023585                1.00   0.03  0.00  0.00  0.00  0.00  0.00  0.97  0.00  0.00
  H0024098                1.00   0.03  0.93  0.00  0.04  0.00  0.00  0.00  0.97  0.00
  H0024235                1.00   0.03  0.00  0.00  0.00  0.00  0.00  0.97  0.00  0.00
  H0024282                1.00   1.00  0.00  0.00  0.00  0.00  0.00  0.00  0.00  0.00
  H0024308                1.00   0.03  0.00  0.00  0.92  0.05  0.00  0.00  0.01  0.00
  H0024498                1.00   0.03  0.00  0.00  0.00  0.00  0.00  0.97  0.00  0.00
  H0026990                1.00   0.03  0.00  0.00  0.97  0.00  0.00  0.00  0.97  0.00
  H0041650                1.00   0.96  0.01  0.00  0.03  0.00  0.00  0.00  0.96  0.00
  H0041011                1.00   0.03  0.00  0.00  0.97  0.00  0.00  0.00  0.97  0.00
  H0045103                1.00   0.03  0.00  0.00  0.97  0.00  0.00  0.00  0.95  0.00
  H0045104                1.00   0.03  0.00  0.00  0.93  0.04  0.00  0.00  0.05  0.00
  H0045105                1.00   0.03  0.00  0.00  0.97  0.00  0.00  0.00  0.97  0.00
  H0045106                1.00   0.03  0.93  0.00  0.02  0.02  0.00  0.00  0.97  0.00
  H0045107                1.00   0.03  0.00  0.00  0.97  0.00  0.00  0.00  0.97  0.00
  H0045108                1.00   0.03  0.00  0.00  0.97  0.00  0.00  0.00  0.97  0.00
  
  
  *************************
  Conduit Surcharge Summary
  *************************
  
  ----------------------------------------------------------------------------
                                                           Hours        Hours 
                         --------- Hours Full --------   Above Full   Capacity
  Conduit                Both Ends  Upstream  Dnstream   Normal Flow   Limited
  ----------------------------------------------------------------------------
  H0014431                    0.20      0.21      0.20      0.22         0.20
  H0014433                    0.13      0.13      0.17      0.03         0.03
  H0014352                    0.04      0.04      0.08      0.01         0.01
  H0014373                    0.01      0.01      0.01      0.01         0.01
  H0017981                    0.08      0.12      0.08      0.25         0.11
  H0017755                    0.08      0.10      0.08      0.15         0.09
  H0017357                    0.03      0.03      0.13      0.08         0.01
  H0018216                    0.12      0.15      0.12      0.18         0.14
  H0016792                    0.01      0.01      0.04      0.01         0.01
  H0019507                    0.13      0.13      0.21      0.02         0.02
  H0019998                    0.01      0.01      0.04      0.01         0.01
  H0020087                    0.02      0.02      0.03      0.01         0.01
  H0020211                    0.01      0.04      0.01      0.21         0.01
  H0018753                    0.13      0.13      0.21      0.01         0.01
  H0018863                    0.21      0.21      0.22      0.13         0.12
  H0018440                    0.17      0.24      0.17      0.27         0.22
  H0018456                    0.07      0.08      0.07      0.10         0.07
  H0021806                    0.10      0.13      0.10      0.16         0.12
  H0022111                    0.03      0.03      0.03      0.03         0.01
  H0021704                    0.01      0.01      0.01      0.09         0.01
  H0020521                    0.12      0.12      0.15      0.09         0.09
  H0020755                    0.07      0.07      0.08      0.03         0.03
  H0020530                    0.01      0.08      0.01      0.13         0.07
  H0021163                    0.16      0.17      0.18      0.17         0.16
  H0024325                    0.03      0.03      0.06      0.01         0.01
  H0023585                    0.05      0.08      0.05      0.09         0.08
  H0024098                    0.21      0.22      0.26      0.20         0.17
  H0024235                    0.01      0.03      0.01      0.06         0.03
  H0024498                    0.06      0.20      0.06      0.24         0.16
  H0026990                    0.04      0.04      0.07      0.01         0.01
  H0041011                    0.18      0.18      0.22      0.06         0.05
  H0045105                    0.04      0.04      0.05      0.01         0.01
  H0045106                    0.06      0.06      0.08      0.01         0.01
  H0045107                    0.17      0.17      0.21      0.06         0.06
  H0045108                    0.21      0.21      0.24      0.15         0.15
  

  Analysis begun on:  Fri Mar 22 15:56:01 2024
  Analysis ended on:  Fri Mar 22 15:56:13 2024
  Total elapsed time: 00:00:12