
  EPA STORM WATER MANAGEMENT MODEL - VERSION 5.2 (Build 5.2.4)
  PYSWMM TOOLKIT API - VERSION v1.0 (2023-11-27)
  ------------------------------------------------------------

  Gievenbeck_e2_T100D60 
  
  ****************
  Analysis Options
  ****************
  Flow Units ............... CMS
  Process Models:
    Rainfall/Runoff ........ YES
    RDII ................... NO
    Snowmelt ............... NO
    Groundwater ............ NO
    Flow Routing ........... YES
    Ponding Allowed ........ NO
    Water Quality .......... NO
  Infiltration Method ...... HORTON
  Flow Routing Method ...... DYNWAVE
  Surcharge Method ......... SLOT
  Starting Date ............ 01/01/2024 00:00:00
  Ending Date .............. 01/04/2024 04:00:00
  Antecedent Dry Days ...... 14.0
  Report Time Step ......... 00:01:00
  Wet Time Step ............ 00:01:00
  Dry Time Step ............ 00:01:00
  Routing Time Step ........ 1.00 sec
  Variable Time Step ....... YES
  Maximum Trials ........... 8
  Number of Threads ........ 1
  Head Tolerance ........... 0.001500 m
  
  
  **************************        Volume         Depth
  Runoff Quantity Continuity     hectare-m            mm
  **************************     ---------       -------
  Total Precipitation ......         0.455        44.980
  Evaporation Loss .........         0.010         0.968
  Infiltration Loss ........         0.164        16.184
  Surface Runoff ...........         0.283        27.926
  Final Storage ............         0.000         0.000
  Continuity Error (%) .....        -0.219
  
  
  **************************        Volume        Volume
  Flow Routing Continuity        hectare-m      10^6 ltr
  **************************     ---------     ---------
  Dry Weather Inflow .......         0.000         0.000
  Wet Weather Inflow .......         0.283         2.827
  Groundwater Inflow .......         0.000         0.000
  RDII Inflow ..............         0.000         0.000
  External Inflow ..........         0.000         0.000
  External Outflow .........         0.263         2.626
  Flooding Loss ............         0.021         0.209
  Evaporation Loss .........         0.000         0.000
  Exfiltration Loss ........         0.000         0.000
  Initial Stored Volume ....         0.000         0.000
  Final Stored Volume ......         0.000         0.000
  Continuity Error (%) .....        -0.282
  
  
  *************************
  Highest Continuity Errors
  *************************
  Node R0019206 (1.31%)
  
  
  ***************************
  Time-Step Critical Elements
  ***************************
  None
  
  
  ********************************
  Highest Flow Instability Indexes
  ********************************
  All links are stable.
  
  
  *********************************
  Most Frequent Nonconverging Nodes
  *********************************
  Convergence obtained at all time steps.
  
  
  *************************
  Routing Time Step Summary
  *************************
  Minimum Time Step           :     0.50 sec
  Average Time Step           :     1.00 sec
  Maximum Time Step           :     1.00 sec
  % of Time in Steady State   :     0.00
  Average Iterations per Step :     2.00
  % of Steps Not Converging   :     0.00
  Time Step Frequencies       :
      1.000 -  0.871 sec      :    99.98 %
      0.871 -  0.758 sec      :     0.01 %
      0.758 -  0.660 sec      :     0.00 %
      0.660 -  0.574 sec      :     0.00 %
      0.574 -  0.500 sec      :     0.00 %
  
  
  ***************************
  Subcatchment Runoff Summary
  ***************************
  
  ------------------------------------------------------------------------------------------------------------------------------
                            Total      Total      Total      Total     Imperv       Perv      Total       Total     Peak  Runoff
                           Precip      Runon       Evap      Infil     Runoff     Runoff     Runoff      Runoff   Runoff   Coeff
  Subcatchment                 mm         mm         mm         mm         mm         mm         mm    10^6 ltr      CMS
  ------------------------------------------------------------------------------------------------------------------------------
  EZG_368                   44.98       0.00       0.96      16.29      21.60       9.46      27.82        0.11     0.18   0.618
  EZG_392                   44.98       0.00       0.96      16.18      21.61       9.58      27.95        0.09     0.15   0.621
  EZG_352                   44.98       0.00       0.97      16.49      21.59       9.25      27.60        0.16     0.25   0.614
  EZG_372                   44.98       0.00       0.95      15.85      21.63       9.92      28.31        0.04     0.07   0.629
  EZG_416                   44.98       0.00       0.96      16.13      21.61       9.63      28.00        0.08     0.14   0.622
  EZG_388                   44.98       0.00       0.96      16.35      21.60       9.40      27.76        0.13     0.20   0.617
  EZG_394                   44.98       0.00       0.96      16.11      21.61       9.65      28.02        0.08     0.13   0.623
  EZG_400                   44.98       0.00       0.95      16.08      21.61       9.68      28.06        0.07     0.12   0.624
  EZG_390                   44.98       0.00       0.96      16.17      21.61       9.59      27.96        0.09     0.15   0.622
  EZG_350                   44.98       0.00       0.96      16.35      21.60       9.40      27.76        0.13     0.20   0.617
  EZG_370                   44.98       0.00       0.96      16.22      21.60       9.53      27.89        0.10     0.16   0.620
  EZG_398                   44.98       0.00       0.94      15.77      21.64      10.02      28.41        0.03     0.05   0.632
  EZG_382                   44.98       0.00       0.94      15.74      21.64      10.05      28.45        0.03     0.05   0.632
  EZG_374                   44.98       0.00       1.16      13.01      25.91       8.89      30.92        0.12     0.19   0.687
  EZG_412                   44.98       0.00       0.93      15.60      21.66      10.22      28.63        0.01     0.02   0.637
  EZG_344                   44.98       0.00       0.95      16.07      21.62       9.69      28.06        0.07     0.12   0.624
  EZG_376                   44.98       0.00       0.95      15.98      21.62       9.79      28.17        0.06     0.10   0.626
  EZG_356                   44.98       0.00       0.97      16.54      21.59       9.20      27.55        0.18     0.27   0.613
  EZG_386                   44.98       0.00       0.98      16.68      21.58       9.06      27.40        0.22     0.32   0.609
  EZG_380                   44.98       0.00       0.96      16.26      21.60       9.49      27.85        0.11     0.17   0.619
  EZG_378                   44.98       0.00       0.96      16.20      21.61       9.55      27.92        0.10     0.16   0.621
  EZG_414                   44.98       0.00       0.94      15.74      21.65      10.05      28.45        0.02     0.05   0.633
  EZG_402                   44.98       0.00       0.96      16.18      21.61       9.58      27.95        0.09     0.15   0.621
  EZG_358                   44.98       0.00       0.97      16.53      21.59       9.21      27.56        0.17     0.27   0.613
  EZG_364                   44.98       0.00       0.97      16.53      21.59       9.21      27.56        0.17     0.27   0.613
  EZG_410                   44.98       0.00       0.95      16.00      21.62       9.77      28.15        0.06     0.10   0.626
  EZG_366                   44.98       0.00       0.95      16.05      21.62       9.72      28.09        0.07     0.11   0.624
  EZG_18259                 44.98       0.00       0.95      16.05      21.62       9.72      28.09        0.07     0.11   0.625
  EZG_18258                 44.98       0.00       0.94      15.67      21.65      10.13      28.54        0.02     0.03   0.635
  EZG_346                   44.98       0.00       0.94      16.56      21.17       9.58      27.58        0.10     0.16   0.613
  EZG_348                   44.98       0.00       0.93      16.34      21.19       9.81      27.82        0.06     0.11   0.619
  
  
  ******************
  Node Depth Summary
  ******************
  
  ---------------------------------------------------------------------------------
                                 Average  Maximum  Maximum  Time of Max    Reported
                                   Depth    Depth      HGL   Occurrence   Max Depth
  Node                 Type       Meters   Meters   Meters  days hr:min      Meters
  ---------------------------------------------------------------------------------
  R0019466             JUNCTION     0.01     2.81    72.26     0  02:24        2.81
  R0019468             JUNCTION     0.01     2.73    72.04     0  02:24        2.73
  R0019831             JUNCTION     0.00     1.66    70.83     0  02:22        1.66
  R0019825             JUNCTION     0.01     1.50    70.34     0  02:21        1.50
  R0019843             JUNCTION     0.01     1.93    69.56     0  02:23        1.84
  R0019368             JUNCTION     0.01     1.82    68.61     0  02:23        1.78
  R0019369             JUNCTION     0.01     1.02    67.61     0  02:25        1.01
  R0019370             JUNCTION     0.00     0.70    66.60     0  02:26        0.68
  R0019345             JUNCTION     0.01     2.05    71.95     0  02:25        1.98
  R0019346             JUNCTION     0.00     2.04    71.84     0  02:25        1.88
  R0043600             JUNCTION     0.00     2.58    72.25     0  02:25        1.71
  R0019203             JUNCTION     0.00     2.35    71.89     0  02:25        1.84
  R0043594             JUNCTION     0.00     2.75    72.48     0  02:25        1.72
  R0021458             JUNCTION     0.00     2.55    72.20     0  02:25        1.84
  R0019202             JUNCTION     0.00     2.36    71.94     0  02:25        1.85
  R0019373             JUNCTION     0.00     2.80    72.47     0  02:25        2.58
  R0019254             JUNCTION     0.01     2.13    72.17     0  02:24        2.13
  R0019716             JUNCTION     0.01     2.24    71.25     0  02:25        1.78
  R0019946             JUNCTION     0.01     2.27    70.89     0  02:25        1.81
  R0013935             JUNCTION     0.00     1.62    70.45     0  02:22        1.62
  R0019939             JUNCTION     0.01     1.88    70.45     0  02:25        1.88
  R0019944             JUNCTION     0.00     1.74    70.02     0  02:25        1.52
  R0043703             JUNCTION     0.01     1.89    70.49     0  02:25        1.53
  R0019945             JUNCTION     0.01     1.80    70.20     0  02:25        1.53
  R0039621             JUNCTION     0.00     1.56    71.13     0  02:23        1.56
  R0019838             JUNCTION     0.00     1.80    71.26     0  02:23        1.80
  R0039606             JUNCTION     0.00     2.35    71.94     0  02:25        1.85
  R0019204             JUNCTION     0.00     0.00    69.91     0  00:00        0.00
  R0019205             JUNCTION     0.00     0.00    69.62     0  00:00        0.00
  R0019849             JUNCTION     0.01     1.80    70.32     0  02:25        1.79
  R0019371             JUNCTION     0.00     0.00    70.41     0  00:00        0.00
  R0019718             JUNCTION     0.01     2.39    71.81     0  02:25        1.87
  R0021442             JUNCTION     0.01     2.05    72.10     0  02:21        2.05
  R0019247             JUNCTION     0.01     2.26    72.14     0  02:25        1.83
  R0019719             JUNCTION     0.00     2.07    71.75     0  02:25        1.77
  R0019767             JUNCTION     0.00     0.74    65.47     0  02:26        0.71
  R0019768             JUNCTION     0.00     0.59    64.36     0  02:26        0.58
  R0021453             JUNCTION     0.00     2.40    72.35     0  02:25        1.43
  R0019839             JUNCTION     0.00     1.93    71.32     0  02:24        1.91
  R0019717             JUNCTION     0.01     2.26    71.60     0  02:25        1.79
  R0019252             JUNCTION     0.00     1.94    72.13     0  02:22        1.94
  R0019721             JUNCTION     0.00     1.96    71.83     0  02:25        1.96
  R0019942             JUNCTION     0.00     1.74    70.39     0  02:25        1.68
  R0019206             JUNCTION     0.00     0.54    69.61     0  02:26        0.48
  R0019840             JUNCTION     0.00     2.10    71.07     0  02:25        2.09
  R0043702             JUNCTION     0.01     2.29    70.99     0  02:25        2.29
  R0019723             JUNCTION     0.00     1.72    71.80     0  02:24        1.72
  R0019724             JUNCTION     0.00     1.73    71.89     0  02:24        1.71
  R0021433             JUNCTION     0.01     2.15    72.54     0  02:21        2.15
  R0021435             JUNCTION     0.01     2.11    72.29     0  02:21        2.11
  R0019769             OUTFALL      0.00     0.59    63.97     0  02:26        0.58
  
  
  *******************
  Node Inflow Summary
  *******************
  
  -------------------------------------------------------------------------------------------------
                                  Maximum  Maximum                  Lateral       Total        Flow
                                  Lateral    Total  Time of Max      Inflow      Inflow     Balance
                                   Inflow   Inflow   Occurrence      Volume      Volume       Error
  Node                 Type           CMS      CMS  days hr:min    10^6 ltr    10^6 ltr     Percent
  -------------------------------------------------------------------------------------------------
  R0019466             JUNCTION     0.184    0.184     0  02:25       0.115        0.16       0.028
  R0019468             JUNCTION     0.115    0.190     0  02:25      0.0672       0.205      -0.006
  R0019831             JUNCTION     0.149    0.149     0  02:25      0.0905      0.0905       0.075
  R0019825             JUNCTION     0.150    0.250     0  02:25      0.0908       0.176       0.052
  R0019843             JUNCTION     0.000    2.690     0  02:25           0        2.63      -0.070
  R0019368             JUNCTION     0.000    2.593     0  02:25           0        2.62      -0.034
  R0019369             JUNCTION     0.000    2.602     0  02:25           0        2.63      -0.016
  R0019370             JUNCTION     0.000    2.609     0  02:26           0        2.63       0.002
  R0019345             JUNCTION     0.000    0.162     0  02:22           0       0.148       0.032
  R0019346             JUNCTION     0.023    0.318     0  02:24      0.0114       0.266       0.021
  R0043600             JUNCTION     0.000    0.224     0  02:24           0       0.258      -0.097
  R0019203             JUNCTION     0.048    0.975     0  02:25      0.0251       0.756      -0.080
  R0043594             JUNCTION     0.250    0.689     0  02:25       0.163       0.245      -0.289
  R0021458             JUNCTION     0.202    0.669     0  02:25       0.127       0.373      -0.087
  R0019202             JUNCTION     0.070    0.850     0  02:25      0.0383       0.476      -0.288
  R0019373             JUNCTION     0.163    0.229     0  02:24         0.1       0.116       0.915
  R0019254             JUNCTION     0.136    0.176     0  02:22      0.0816       0.149       0.000
  R0019716             JUNCTION     0.200    1.763     0  02:25       0.127        1.54      -0.022
  R0019946             JUNCTION     0.000    1.756     0  02:25           0        1.54      -0.002
  R0013935             JUNCTION     0.130    0.130     0  02:25      0.0777      0.0777       0.025
  R0019939             JUNCTION     0.053    0.129     0  02:22      0.0281      0.0953      -0.037
  R0019944             JUNCTION     0.122    2.088     0  02:25      0.0723        1.93       0.016
  R0043703             JUNCTION     0.146    1.852     0  02:25      0.0885        1.63      -0.019
  R0019945             JUNCTION     0.000    1.997     0  02:25           0        1.86      -0.021
  R0039621             JUNCTION     0.000    0.254     0  02:25           0      0.0351      -0.762
  R0019838             JUNCTION     0.268    0.273     0  02:25       0.177       0.181      -0.090
  R0039606             JUNCTION     0.000    0.663     0  02:25           0       0.372       0.182
  R0019204             JUNCTION     0.000    0.000     0  00:00           0           0       0.000 ltr
  R0019205             JUNCTION     0.000    0.000     0  00:00           0           0       0.000 ltr
  R0019849             JUNCTION     0.000    0.224     0  02:23           0       0.228       0.007
  R0019371             JUNCTION     0.000    0.000     0  00:00           0           0       0.000 ltr
  R0019718             JUNCTION     0.175    1.116     0  02:25       0.108       0.865      -0.602
  R0021442             JUNCTION     0.193    0.265     0  02:25       0.117       0.235      -0.006
  R0019247             JUNCTION     0.098    0.226     0  02:24      0.0562       0.259       0.076
  R0019719             JUNCTION     0.102    0.401     0  02:24      0.0591       0.325       0.425
  R0019767             JUNCTION     0.000    2.624     0  02:26           0        2.63      -0.006
  R0019768             JUNCTION     0.000    2.604     0  02:26           0        2.63       0.007
  R0021453             JUNCTION     0.120    0.610     0  02:25       0.071      0.0745      -2.339
  R0019839             JUNCTION     0.265    0.403     0  02:23       0.174        0.32       0.025
  R0019717             JUNCTION     0.324    1.609     0  02:25       0.219        1.41       0.076
  R0019252             JUNCTION     0.157    0.167     0  02:25      0.0957      0.0964      -0.035
  R0019721             JUNCTION     0.047    0.169     0  02:24      0.0248       0.107       0.025
  R0019942             JUNCTION     0.000    0.125     0  02:21           0       0.132      -0.169
  R0019206             JUNCTION     0.000    0.104     0  02:25           0     0.00346       1.326
  R0019840             JUNCTION     0.000    0.546     0  02:23           0       0.523      -0.052
  R0043702             JUNCTION     0.266    0.730     0  02:23       0.175       0.698       0.382
  R0019723             JUNCTION     0.114    0.157     0  02:25      0.0667      0.0846      -0.204
  R0019724             JUNCTION     0.034    0.057     0  02:22      0.0175      0.0177      -0.435
  R0021433             JUNCTION     0.163    0.163     0  02:25         0.1         0.1      -0.156
  R0021435             JUNCTION     0.106    0.178     0  02:25      0.0619       0.145       0.026
  R0019769             OUTFALL      0.000    2.617     0  02:26           0        2.63       0.000
  
  
  **********************
  Node Surcharge Summary
  **********************
  
  Surcharging occurs when water rises above the top of the highest conduit.
  ---------------------------------------------------------------------
                                               Max. Height   Min. Depth
                                   Hours       Above Crown    Below Rim
  Node                 Type      Surcharged         Meters       Meters
  ---------------------------------------------------------------------
  R0019466             JUNCTION        0.27          2.510        0.000
  R0019468             JUNCTION        0.27          2.430        0.000
  R0019831             JUNCTION        0.18          1.360        0.000
  R0019825             JUNCTION        0.23          1.200        0.000
  R0019843             JUNCTION        0.12          1.029        1.591
  R0019368             JUNCTION        0.15          0.923        0.127
  R0019369             JUNCTION        0.03          0.124        0.926
  R0019345             JUNCTION        0.17          1.750        0.000
  R0019346             JUNCTION        0.14          1.642        0.098
  R0043600             JUNCTION        0.16          2.185        0.395
  R0019203             JUNCTION        0.06          1.449        0.531
  R0043594             JUNCTION        0.04          1.820        0.000
  R0021458             JUNCTION        0.05          1.652        0.428
  R0019202             JUNCTION        0.06          1.463        0.537
  R0019373             JUNCTION        0.18          2.500        0.000
  R0019254             JUNCTION        0.20          1.830        0.000
  R0019716             JUNCTION        0.09          1.337        0.383
  R0019946             JUNCTION        0.12          1.371        0.149
  R0013935             JUNCTION        0.19          1.320        0.000
  R0019939             JUNCTION        0.27          1.584        0.036
  R0019944             JUNCTION        0.07          0.845        0.685
  R0043703             JUNCTION        0.07          0.991        0.329
  R0019945             JUNCTION        0.07          0.895        0.565
  R0039621             JUNCTION        0.08          1.060        0.000
  R0019838             JUNCTION        0.09          1.300        0.000
  R0039606             JUNCTION        0.05          1.451        0.549
  R0019849             JUNCTION        0.29          1.500        0.430
  R0019718             JUNCTION        0.07          1.493        0.507
  R0021442             JUNCTION        0.32          1.750        0.000
  R0019247             JUNCTION        0.18          1.860        0.000
  R0019719             JUNCTION        0.11          1.567        0.233
  R0021453             JUNCTION        0.03          1.500        0.000
  R0019839             JUNCTION        0.10          1.430        0.220
  R0019717             JUNCTION        0.06          1.319        0.531
  R0019252             JUNCTION        0.17          1.640        0.000
  R0019721             JUNCTION        0.13          1.560        0.000
  R0019942             JUNCTION        0.24          1.441        0.209
  R0019206             JUNCTION        0.01          0.235        1.475
  R0019840             JUNCTION        0.12          1.599        0.971
  R0043702             JUNCTION        0.14          1.792        1.118
  R0019723             JUNCTION        0.10          1.320        0.000
  R0019724             JUNCTION        0.10          1.428        0.022
  R0021433             JUNCTION        0.22          1.850        0.000
  R0021435             JUNCTION        0.27          1.810        0.000
  
  
  *********************
  Node Flooding Summary
  *********************
  
  Flooding refers to all water that overflows a node, whether it ponds or not.
  --------------------------------------------------------------------------
                                                             Total   Maximum
                                 Maximum   Time of Max       Flood    Ponded
                        Hours       Rate    Occurrence      Volume     Depth
  Node                 Flooded       CMS   days hr:min    10^6 ltr    Meters
  --------------------------------------------------------------------------
  R0019466                0.03     0.083      0  02:25       0.006     0.000
  R0019468                0.03     0.034      0  02:25       0.002     0.000
  R0019831                0.06     0.049      0  02:25       0.006     0.000
  R0019825                0.11     0.186      0  02:25       0.043     0.000
  R0019345                0.01     0.022      0  02:25       0.000     0.000
  R0043594                0.01     0.102      0  02:25       0.000     0.000
  R0019373                0.01     0.017      0  02:25       0.000     0.000
  R0019254                0.02     0.019      0  02:25       0.001     0.000
  R0013935                0.07     0.082      0  02:25       0.011     0.000
  R0039621                0.06     0.254      0  02:25       0.031     0.000
  R0019838                0.01     0.022      0  02:25       0.000     0.000
  R0021442                0.10     0.166      0  02:25       0.032     0.000
  R0019247                0.01     0.085      0  02:25       0.000     0.000
  R0021453                0.01     0.107      0  02:25       0.000     0.000
  R0019252                0.09     0.167      0  02:25       0.029     0.000
  R0019721                0.01     0.035      0  02:25       0.000     0.000
  R0019723                0.03     0.048      0  02:25       0.002     0.000
  R0021433                0.09     0.091      0  02:25       0.017     0.000
  R0021435                0.12     0.106      0  02:25       0.028     0.000
  
  
  ***********************
  Outfall Loading Summary
  ***********************
  
  -----------------------------------------------------------
                         Flow       Avg       Max       Total
                         Freq      Flow      Flow      Volume
  Outfall Node           Pcnt       CMS       CMS    10^6 ltr
  -----------------------------------------------------------
  R0019769               4.73     0.206     2.617       2.626
  -----------------------------------------------------------
  System                 4.73     0.206     2.617       2.626
  
  
  ********************
  Link Flow Summary
  ********************
  
  -----------------------------------------------------------------------------
                                 Maximum  Time of Max   Maximum    Max/    Max/
                                  |Flow|   Occurrence   |Veloc|    Full    Full
  Link                 Type          CMS  days hr:min     m/sec    Flow   Depth
  -----------------------------------------------------------------------------
  H0014431             CONDUIT     0.088     0  02:26      1.25    1.63    1.00
  H0014433             CONDUIT     0.100     0  02:25      1.42    1.28    1.00
  H0014352             CONDUIT     2.593     0  02:25      4.08    1.06    1.00
  H0014373             CONDUIT     2.609     0  02:26      4.37    1.20    0.94
  H0017981             CONDUIT     0.164     0  02:22      2.32    4.64    1.00
  H0017755             CONDUIT     0.253     0  02:25      2.02    2.05    1.00
  H0017791             CONDUIT     0.499     0  02:25      0.78    0.72    1.00
  H0017357             CONDUIT     0.219     0  02:24      3.09    3.50    1.00
  H0018216             CONDUIT     0.162     0  02:22      2.29    2.95    1.00
  H0016792             CONDUIT     1.756     0  02:25      2.76    1.01    1.00
  H0019507             CONDUIT     0.088     0  02:22      1.24    1.22    1.00
  H0019998             CONDUIT     2.088     0  02:25      3.47    0.83    1.00
  H0019576             CONDUIT     1.893     0  02:25      2.97    1.27    1.00
  H0020087             CONDUIT     0.254     0  02:25      1.29    1.11    1.00
  H0020211             CONDUIT     1.751     0  02:25      2.75    4.36    1.00
  H0018982             CONDUIT     0.663     0  02:25      1.04    1.07    1.00
  H0018753             CONDUIT     0.081     0  02:24      1.15    1.15    1.00
  H0018845             CONDUIT     0.000     0  00:00      0.00    0.00    0.00
  H0018863             CONDUIT     0.125     0  02:23      1.77    2.94    1.00
  H0019156             CONDUIT     0.000     0  00:00      0.00    0.00    0.00
  H0018929             CONDUIT     0.978     0  02:25      1.54    0.85    1.00
  H0018440             CONDUIT     0.158     0  02:21      2.23    2.83    1.00
  H0018456             CONDUIT     0.309     0  02:23      2.46    1.88    1.00
  H0018968             CONDUIT     2.604     0  02:26      5.18    1.00    0.74
  H0022036             CONDUIT     0.494     0  02:25      0.78    0.38    1.00
  H0021806             CONDUIT     0.224     0  02:24      1.78    1.98    1.00
  H0022111             CONDUIT     0.184     0  02:23      0.94    1.32    1.00
  H0021440             CONDUIT     1.612     0  02:25      2.53    1.04    1.00
  H0021704             CONDUIT     1.119     0  02:25      1.76    2.13    1.00
  H0020521             CONDUIT     0.083     0  02:22      1.18    1.69    1.00
  H0020755             CONDUIT     0.161     0  02:24      1.28    1.77    1.00
  H0020530             CONDUIT     2.602     0  02:25      4.09    2.23    1.00
  H0020618             CONDUIT     2.006     0  02:25      3.35    1.24    1.00
  H0021163             CONDUIT     0.125     0  02:21      1.77    2.09    1.00
  H0020497             CONDUIT     0.104     0  02:25      1.47    0.23    1.00
  H0024325             CONDUIT     0.394     0  02:23      2.01    1.17    1.00
  H0023585             CONDUIT     0.721     0  02:23      3.67    1.66    1.00
  H0024098             CONDUIT     0.220     0  02:23      3.12    2.57    1.00
  H0024235             CONDUIT     0.397     0  02:23      2.02    1.63    1.00
  H0024282             CONDUIT     0.000     0  00:00      0.00    0.00    0.89
  H0024308             CONDUIT     2.617     0  02:26      5.91    0.77    0.66
  H0024498             CONDUIT     0.169     0  02:25      2.39    2.62    1.00
  H0026990             CONDUIT     0.125     0  02:24      0.99    0.94    1.00
  H0041650             CONDUIT     0.848     0  02:25      1.33    0.99    1.00
  H0041011             CONDUIT     0.115     0  02:22      1.63    1.14    1.00
  H0045103             CONDUIT     0.650     0  02:25      1.02    0.81    1.00
  H0045104             CONDUIT     2.624     0  02:26      4.86    0.93    0.79
  H0045105             CONDUIT     0.044     0  02:25      0.62    0.76    1.00
  H0045106             CONDUIT     0.506     0  02:23      2.58    0.68    1.00
  H0045107             CONDUIT     0.072     0  02:27      1.01    1.18    1.00
  H0045108             CONDUIT     0.088     0  02:29      1.24    1.58    1.00
  
  
  ***************************
  Flow Classification Summary
  ***************************
  
  -------------------------------------------------------------------------------------
                      Adjusted    ---------- Fraction of Time in Flow Class ---------- 
                       /Actual         Up    Down  Sub   Sup   Up    Down  Norm  Inlet 
  Conduit               Length    Dry  Dry   Dry   Crit  Crit  Crit  Crit  Ltd   Ctrl  
  -------------------------------------------------------------------------------------
  H0014431                1.00   0.03  0.00  0.00  0.97  0.00  0.00  0.00  0.97  0.00
  H0014433                1.00   0.03  0.00  0.00  0.97  0.00  0.00  0.00  0.97  0.00
  H0014352                1.00   0.03  0.00  0.00  0.95  0.02  0.00  0.00  0.97  0.00
  H0014373                1.00   0.03  0.00  0.00  0.93  0.04  0.00  0.00  0.92  0.00
  H0017981                1.00   0.03  0.00  0.00  0.00  0.00  0.00  0.97  0.00  0.00
  H0017755                1.00   0.03  0.00  0.00  0.00  0.00  0.00  0.97  0.00  0.00
  H0017791                1.00   0.03  0.00  0.00  0.97  0.00  0.00  0.00  0.97  0.00
  H0017357                1.00   0.03  0.97  0.00  0.00  0.00  0.00  0.00  0.97  0.00
  H0018216                1.00   0.03  0.92  0.00  0.05  0.00  0.00  0.00  0.97  0.00
  H0016792                1.00   0.03  0.92  0.00  0.05  0.00  0.00  0.00  0.96  0.00
  H0019507                1.00   0.03  0.00  0.00  0.97  0.00  0.00  0.00  0.97  0.00
  H0019998                1.00   0.03  0.00  0.00  0.93  0.04  0.00  0.00  0.05  0.00
  H0019576                1.00   0.03  0.00  0.00  0.95  0.02  0.00  0.00  0.05  0.00
  H0020087                1.00   0.03  0.95  0.00  0.02  0.00  0.00  0.00  0.96  0.00
  H0020211                1.00   0.03  0.00  0.00  0.97  0.00  0.00  0.00  0.91  0.00
  H0018982                1.00   0.03  0.00  0.00  0.97  0.00  0.00  0.00  0.94  0.00
  H0018753                1.00   0.03  0.00  0.00  0.97  0.00  0.00  0.00  0.97  0.00
  H0018845                1.00   1.00  0.00  0.00  0.00  0.00  0.00  0.00  0.00  0.00
  H0018863                1.00   0.03  0.00  0.00  0.97  0.00  0.00  0.00  0.96  0.00
  H0019156                1.00   1.00  0.00  0.00  0.00  0.00  0.00  0.00  0.00  0.00
  H0018929                1.00   0.03  0.92  0.00  0.05  0.00  0.00  0.00  0.97  0.00
  H0018440                1.00   0.03  0.00  0.00  0.97  0.00  0.00  0.00  0.96  0.00
  H0018456                1.00   0.03  0.00  0.00  0.97  0.00  0.00  0.00  0.96  0.00
  H0018968                1.00   0.03  0.91  0.00  0.01  0.04  0.00  0.00  0.93  0.00
  H0022036                1.00   0.03  0.00  0.00  0.01  0.00  0.00  0.96  0.01  0.00
  H0021806                1.00   0.03  0.92  0.00  0.05  0.00  0.00  0.00  0.96  0.00
  H0022111                1.00   0.03  0.00  0.00  0.97  0.00  0.00  0.00  0.00  0.00
  H0021440                1.00   0.03  0.00  0.00  0.95  0.02  0.00  0.00  0.02  0.00
  H0021704                1.00   0.03  0.00  0.00  0.00  0.00  0.00  0.97  0.00  0.00
  H0020521                1.00   0.03  0.00  0.00  0.97  0.00  0.00  0.00  0.97  0.00
  H0020755                1.00   0.03  0.93  0.00  0.04  0.00  0.00  0.00  0.97  0.00
  H0020530                1.00   0.03  0.00  0.00  0.95  0.02  0.00  0.00  0.01  0.00
  H0020618                1.00   0.03  0.00  0.00  0.94  0.03  0.00  0.00  0.93  0.00
  H0021163                1.00   0.03  0.00  0.00  0.96  0.01  0.00  0.00  0.94  0.00
  H0020497                1.20   0.03  0.97  0.00  0.00  0.00  0.00  0.00  0.97  0.00
  H0024325                1.00   0.03  0.00  0.00  0.95  0.02  0.00  0.00  0.94  0.00
  H0023585                1.00   0.03  0.00  0.00  0.00  0.00  0.00  0.97  0.00  0.00
  H0024098                1.00   0.03  0.93  0.00  0.05  0.00  0.00  0.00  0.96  0.00
  H0024235                1.00   0.03  0.00  0.00  0.00  0.00  0.00  0.97  0.00  0.00
  H0024282                1.00   1.00  0.00  0.00  0.00  0.00  0.00  0.00  0.00  0.00
  H0024308                1.00   0.03  0.00  0.00  0.91  0.06  0.00  0.00  0.02  0.00
  H0024498                1.00   0.03  0.00  0.00  0.00  0.00  0.00  0.97  0.00  0.00
  H0026990                1.00   0.03  0.00  0.00  0.97  0.00  0.00  0.00  0.97  0.00
  H0041650                1.00   0.95  0.01  0.00  0.04  0.00  0.00  0.00  0.96  0.00
  H0041011                1.00   0.03  0.00  0.00  0.97  0.00  0.00  0.00  0.96  0.00
  H0045103                1.00   0.03  0.00  0.00  0.97  0.00  0.00  0.00  0.95  0.00
  H0045104                1.00   0.03  0.00  0.00  0.93  0.05  0.00  0.00  0.05  0.00
  H0045105                1.00   0.03  0.00  0.00  0.97  0.00  0.00  0.00  0.97  0.00
  H0045106                1.00   0.03  0.92  0.00  0.02  0.03  0.00  0.00  0.97  0.00
  H0045107                1.00   0.03  0.00  0.00  0.97  0.00  0.00  0.00  0.97  0.00
  H0045108                1.00   0.03  0.00  0.00  0.97  0.00  0.00  0.00  0.97  0.00
  
  
  *************************
  Conduit Surcharge Summary
  *************************
  
  ----------------------------------------------------------------------------
                                                           Hours        Hours 
                         --------- Hours Full --------   Above Full   Capacity
  Conduit                Both Ends  Upstream  Dnstream   Normal Flow   Limited
  ----------------------------------------------------------------------------
  H0014431                    0.27      0.27      0.27      0.31         0.26
  H0014433                    0.18      0.18      0.23      0.08         0.08
  H0014352                    0.12      0.12      0.15      0.04         0.04
  H0014373                    0.01      0.03      0.01      0.10         0.01
  H0017981                    0.14      0.17      0.14      0.36         0.16
  H0017755                    0.15      0.16      0.15      0.19         0.14
  H0017791                    0.04      0.04      0.05      0.01         0.01
  H0017357                    0.12      0.12      0.18      0.12         0.01
  H0018216                    0.17      0.20      0.17      0.23         0.18
  H0016792                    0.09      0.09      0.12      0.01         0.01
  H0019507                    0.19      0.19      0.27      0.03         0.02
  H0019998                    0.07      0.07      0.12      0.01         0.01
  H0019576                    0.07      0.07      0.07      0.08         0.06
  H0020087                    0.08      0.08      0.09      0.01         0.01
  H0020211                    0.07      0.12      0.07      0.28         0.08
  H0018982                    0.05      0.05      0.05      0.01         0.01
  H0018753                    0.18      0.18      0.27      0.01         0.01
  H0018863                    0.27      0.27      0.29      0.17         0.17
  H0018929                    0.06      0.06      0.07      0.01         0.01
  H0018440                    0.22      0.32      0.22      0.37         0.28
  H0018456                    0.13      0.14      0.13      0.15         0.13
  H0022036                    0.03      0.03      0.04      0.01         0.01
  H0021806                    0.16      0.18      0.16      0.20         0.17
  H0022111                    0.09      0.09      0.10      0.04         0.03
  H0021440                    0.06      0.06      0.09      0.01         0.01
  H0021704                    0.06      0.07      0.06      0.16         0.05
  H0020521                    0.17      0.17      0.20      0.08         0.07
  H0020755                    0.13      0.13      0.14      0.08         0.07
  H0020530                    0.03      0.15      0.03      0.19         0.14
  H0020618                    0.07      0.07      0.07      0.10         0.06
  H0021163                    0.23      0.23      0.24      0.20         0.19
  H0020497                    0.01      0.01     73.60      0.01         0.01
  H0024325                    0.10      0.10      0.12      0.01         0.01
  H0023585                    0.13      0.14      0.13      0.15         0.13
  H0024098                    0.29      0.29      0.36      0.25         0.23
  H0024235                    0.10      0.11      0.11      0.10         0.09
  H0024498                    0.13      0.27      0.13      0.33         0.22
  H0026990                    0.10      0.10      0.13      0.01         0.01
  H0041650                    0.05      0.06      0.06      0.01         0.01
  H0041011                    0.24      0.24      0.29      0.04         0.03
  H0045103                    0.05      0.05      0.06      0.01         0.01
  H0045105                    0.10      0.10      0.12      0.01         0.01
  H0045106                    0.12      0.12      0.14      0.01         0.01
  H0045107                    0.22      0.22      0.27      0.11         0.10
  H0045108                    0.27      0.27      0.32      0.20         0.20
  

  Analysis begun on:  Fri Mar 22 15:55:21 2024
  Analysis ended on:  Fri Mar 22 15:55:30 2024
  Total elapsed time: 00:00:09