
  EPA STORM WATER MANAGEMENT MODEL - VERSION 5.2 (Build 5.2.4)
  PYSWMM TOOLKIT API - VERSION v1.0 (2023-11-27)
  ------------------------------------------------------------

  Gievenbeck_2016-02-21 07 45 00_hN3 14 
  
  ****************
  Analysis Options
  ****************
  Flow Units ............... CMS
  Process Models:
    Rainfall/Runoff ........ YES
    RDII ................... NO
    Snowmelt ............... NO
    Groundwater ............ NO
    Flow Routing ........... YES
    Ponding Allowed ........ NO
    Water Quality .......... NO
  Infiltration Method ...... HORTON
  Flow Routing Method ...... DYNWAVE
  Surcharge Method ......... SLOT
  Starting Date ............ 01/01/2024 00:00:00
  Ending Date .............. 01/04/2024 04:00:00
  Antecedent Dry Days ...... 14.0
  Report Time Step ......... 00:01:00
  Wet Time Step ............ 00:01:00
  Dry Time Step ............ 00:01:00
  Routing Time Step ........ 1.00 sec
  Variable Time Step ....... YES
  Maximum Trials ........... 8
  Number of Threads ........ 1
  Head Tolerance ........... 0.001500 m
  
  
  **************************        Volume         Depth
  Runoff Quantity Continuity     hectare-m            mm
  **************************     ---------       -------
  Total Precipitation ......         0.032         3.140
  Evaporation Loss .........         0.010         0.957
  Infiltration Loss ........         0.017         1.653
  Surface Runoff ...........         0.005         0.529
  Final Storage ............         0.000         0.000
  Continuity Error (%) .....         0.000
  
  
  **************************        Volume        Volume
  Flow Routing Continuity        hectare-m      10^6 ltr
  **************************     ---------     ---------
  Dry Weather Inflow .......         0.000         0.000
  Wet Weather Inflow .......         0.005         0.054
  Groundwater Inflow .......         0.000         0.000
  RDII Inflow ..............         0.000         0.000
  External Inflow ..........         0.000         0.000
  External Outflow .........         0.005         0.054
  Flooding Loss ............         0.000         0.000
  Evaporation Loss .........         0.000         0.000
  Exfiltration Loss ........         0.000         0.000
  Initial Stored Volume ....         0.000         0.000
  Final Stored Volume ......         0.000         0.000
  Continuity Error (%) .....         0.000
  
  
  ***************************
  Time-Step Critical Elements
  ***************************
  None
  
  
  ********************************
  Highest Flow Instability Indexes
  ********************************
  All links are stable.
  
  
  *********************************
  Most Frequent Nonconverging Nodes
  *********************************
  Convergence obtained at all time steps.
  
  
  *************************
  Routing Time Step Summary
  *************************
  Minimum Time Step           :     0.50 sec
  Average Time Step           :     1.00 sec
  Maximum Time Step           :     1.00 sec
  % of Time in Steady State   :     0.00
  Average Iterations per Step :     2.00
  % of Steps Not Converging   :     0.00
  Time Step Frequencies       :
      1.000 -  0.871 sec      :   100.00 %
      0.871 -  0.758 sec      :     0.00 %
      0.758 -  0.660 sec      :     0.00 %
      0.660 -  0.574 sec      :     0.00 %
      0.574 -  0.500 sec      :     0.00 %
  
  
  ***************************
  Subcatchment Runoff Summary
  ***************************
  
  ------------------------------------------------------------------------------------------------------------------------------
                            Total      Total      Total      Total     Imperv       Perv      Total       Total     Peak  Runoff
                           Precip      Runon       Evap      Infil     Runoff     Runoff     Runoff      Runoff   Runoff   Coeff
  Subcatchment                 mm         mm         mm         mm         mm         mm         mm    10^6 ltr      CMS
  ------------------------------------------------------------------------------------------------------------------------------
  EZG_368                    3.14       0.00       0.95       1.66       0.62       0.00       0.53        0.00     0.00   0.167
  EZG_392                    3.14       0.00       0.95       1.66       0.62       0.00       0.53        0.00     0.00   0.168
  EZG_352                    3.14       0.00       0.96       1.66       0.61       0.00       0.52        0.00     0.00   0.166
  EZG_372                    3.14       0.00       0.94       1.66       0.63       0.00       0.54        0.00     0.00   0.170
  EZG_416                    3.14       0.00       0.95       1.66       0.62       0.00       0.53        0.00     0.00   0.169
  EZG_388                    3.14       0.00       0.95       1.66       0.62       0.00       0.52        0.00     0.00   0.167
  EZG_394                    3.14       0.00       0.95       1.66       0.62       0.00       0.53        0.00     0.00   0.169
  EZG_400                    3.14       0.00       0.95       1.66       0.62       0.00       0.53        0.00     0.00   0.169
  EZG_390                    3.14       0.00       0.95       1.66       0.62       0.00       0.53        0.00     0.00   0.168
  EZG_350                    3.14       0.00       0.95       1.66       0.62       0.00       0.52        0.00     0.00   0.167
  EZG_370                    3.14       0.00       0.95       1.66       0.62       0.00       0.53        0.00     0.00   0.168
  EZG_398                    3.14       0.00       0.94       1.66       0.63       0.00       0.54        0.00     0.00   0.171
  EZG_382                    3.14       0.00       0.94       1.66       0.63       0.00       0.54        0.00     0.00   0.171
  EZG_374                    3.14       0.00       1.15       1.37       0.74       0.00       0.63        0.00     0.00   0.200
  EZG_412                    3.14       0.00       0.93       1.67       0.64       0.00       0.54        0.00     0.00   0.173
  EZG_344                    3.14       0.00       0.95       1.66       0.62       0.00       0.53        0.00     0.00   0.169
  EZG_376                    3.14       0.00       0.94       1.66       0.63       0.00       0.53        0.00     0.00   0.170
  EZG_356                    3.14       0.00       0.96       1.66       0.61       0.00       0.52        0.00     0.00   0.166
  EZG_386                    3.14       0.00       0.96       1.66       0.61       0.00       0.52        0.00     0.00   0.165
  EZG_380                    3.14       0.00       0.95       1.66       0.62       0.00       0.53        0.00     0.00   0.168
  EZG_378                    3.14       0.00       0.95       1.66       0.62       0.00       0.53        0.00     0.00   0.168
  EZG_414                    3.14       0.00       0.94       1.66       0.63       0.00       0.54        0.00     0.00   0.171
  EZG_402                    3.14       0.00       0.95       1.66       0.62       0.00       0.53        0.00     0.00   0.168
  EZG_358                    3.14       0.00       0.96       1.66       0.61       0.00       0.52        0.00     0.00   0.166
  EZG_364                    3.14       0.00       0.96       1.66       0.61       0.00       0.52        0.00     0.00   0.166
  EZG_410                    3.14       0.00       0.94       1.66       0.63       0.00       0.53        0.00     0.00   0.169
  EZG_366                    3.14       0.00       0.95       1.66       0.62       0.00       0.53        0.00     0.00   0.169
  EZG_18259                  3.14       0.00       0.95       1.66       0.62       0.00       0.53        0.00     0.00   0.169
  EZG_18258                  3.14       0.00       0.93       1.67       0.64       0.00       0.54        0.00     0.00   0.172
  EZG_346                    3.14       0.00       0.93       1.69       0.61       0.00       0.52        0.00     0.00   0.165
  EZG_348                    3.14       0.00       0.93       1.69       0.61       0.00       0.52        0.00     0.00   0.166
  
  
  ******************
  Node Depth Summary
  ******************
  
  ---------------------------------------------------------------------------------
                                 Average  Maximum  Maximum  Time of Max    Reported
                                   Depth    Depth      HGL   Occurrence   Max Depth
  Node                 Type       Meters   Meters   Meters  days hr:min      Meters
  ---------------------------------------------------------------------------------
  R0019466             JUNCTION     0.00     0.03    69.48     0  04:16        0.03
  R0019468             JUNCTION     0.00     0.03    69.34     0  04:01        0.03
  R0019831             JUNCTION     0.00     0.01    69.18     0  04:00        0.01
  R0019825             JUNCTION     0.00     0.02    68.86     0  04:00        0.02
  R0019843             JUNCTION     0.00     0.04    67.67     0  04:18        0.04
  R0019368             JUNCTION     0.00     0.06    66.85     0  04:19        0.06
  R0019369             JUNCTION     0.00     0.04    66.63     0  04:20        0.04
  R0019370             JUNCTION     0.00     0.04    65.94     0  04:20        0.04
  R0019345             JUNCTION     0.00     0.03    69.93     0  04:02        0.03
  R0019346             JUNCTION     0.00     0.02    69.82     0  04:01        0.02
  R0043600             JUNCTION     0.00     0.03    69.70     0  04:02        0.03
  R0019203             JUNCTION     0.00     0.03    69.57     0  04:02        0.03
  R0043594             JUNCTION     0.00     0.02    69.75     0  04:16        0.02
  R0021458             JUNCTION     0.00     0.03    69.68     0  04:17        0.03
  R0019202             JUNCTION     0.00     0.03    69.61     0  04:01        0.03
  R0019373             JUNCTION     0.00     0.02    69.69     0  04:15        0.02
  R0019254             JUNCTION     0.00     0.02    70.06     0  04:00        0.02
  R0019716             JUNCTION     0.00     0.04    69.05     0  04:17        0.04
  R0019946             JUNCTION     0.00     0.08    68.70     0  04:19        0.08
  R0013935             JUNCTION     0.00     0.01    68.84     0  04:00        0.01
  R0019939             JUNCTION     0.00     0.02    68.59     0  03:51        0.02
  R0019944             JUNCTION     0.00     0.03    68.31     0  04:18        0.03
  R0043703             JUNCTION     0.00     0.04    68.64     0  04:18        0.04
  R0019945             JUNCTION     0.00     0.04    68.44     0  04:18        0.04
  R0039621             JUNCTION     0.00     0.00    69.57     0  00:00        0.00
  R0019838             JUNCTION     0.00     0.03    69.49     0  04:16        0.03
  R0039606             JUNCTION     0.00     0.03    69.62     0  04:19        0.03
  R0019204             JUNCTION     0.00     0.00    69.91     0  00:00        0.00
  R0019205             JUNCTION     0.00     0.00    69.62     0  00:00        0.00
  R0019849             JUNCTION     0.00     0.02    68.54     0  04:01        0.02
  R0019371             JUNCTION     0.00     0.00    70.41     0  00:00        0.00
  R0019718             JUNCTION     0.00     0.06    69.48     0  04:04        0.06
  R0021442             JUNCTION     0.00     0.03    70.08     0  04:00        0.03
  R0019247             JUNCTION     0.00     0.03    69.91     0  04:01        0.03
  R0019719             JUNCTION     0.00     0.03    69.71     0  04:01        0.03
  R0019767             JUNCTION     0.00     0.04    64.77     0  04:21        0.04
  R0019768             JUNCTION     0.00     0.04    63.81     0  04:21        0.04
  R0021453             JUNCTION     0.00     0.01    69.96     0  04:00        0.01
  R0019839             JUNCTION     0.00     0.02    69.41     0  04:16        0.02
  R0019717             JUNCTION     0.00     0.04    69.38     0  04:02        0.04
  R0019252             JUNCTION     0.00     0.02    70.21     0  04:00        0.02
  R0019721             JUNCTION     0.00     0.02    69.89     0  03:52        0.02
  R0019942             JUNCTION     0.00     0.02    68.67     0  04:01        0.02
  R0019206             JUNCTION     0.00     0.00    69.07     0  00:00        0.00
  R0019840             JUNCTION     0.00     0.02    68.99     0  04:17        0.02
  R0043702             JUNCTION     0.00     0.03    68.73     0  04:17        0.03
  R0019723             JUNCTION     0.00     0.01    70.09     0  03:51        0.01
  R0019724             JUNCTION     0.00     0.01    70.17     0  03:46        0.01
  R0021433             JUNCTION     0.00     0.02    70.41     0  04:15        0.02
  R0021435             JUNCTION     0.00     0.02    70.20     0  04:00        0.02
  R0019769             OUTFALL      0.00     0.04    63.42     0  04:21        0.04
  
  
  *******************
  Node Inflow Summary
  *******************
  
  -------------------------------------------------------------------------------------------------
                                  Maximum  Maximum                  Lateral       Total        Flow
                                  Lateral    Total  Time of Max      Inflow      Inflow     Balance
                                   Inflow   Inflow   Occurrence      Volume      Volume       Error
  Node                 Type           CMS      CMS  days hr:min    10^6 ltr    10^6 ltr     Percent
  -------------------------------------------------------------------------------------------------
  R0019466             JUNCTION     0.000    0.001     0  04:15     0.00217     0.00406      -0.051
  R0019468             JUNCTION     0.000    0.001     0  04:00     0.00127     0.00534       0.078
  R0019831             JUNCTION     0.000    0.000     0  04:00     0.00171     0.00171      -0.118
  R0019825             JUNCTION     0.000    0.001     0  04:00     0.00172     0.00343      -0.001
  R0019843             JUNCTION     0.000    0.010     0  04:17           0      0.0536      -0.020
  R0019368             JUNCTION     0.000    0.010     0  04:18           0      0.0536       0.003
  R0019369             JUNCTION     0.000    0.010     0  04:19           0      0.0536       0.004
  R0019370             JUNCTION     0.000    0.010     0  04:20           0      0.0536       0.001
  R0019345             JUNCTION     0.000    0.001     0  04:00           0     0.00336       0.257
  R0019346             JUNCTION     0.000    0.001     0  04:00    0.000216     0.00563       0.061
  R0043600             JUNCTION     0.000    0.001     0  04:01           0     0.00649       0.230
  R0019203             JUNCTION     0.000    0.003     0  04:01    0.000476      0.0145      -0.072
  R0043594             JUNCTION     0.001    0.001     0  04:15     0.00309     0.00443      -0.209
  R0021458             JUNCTION     0.000    0.001     0  04:15     0.00241     0.00685      -0.056
  R0019202             JUNCTION     0.000    0.001     0  04:00    0.000724     0.00756      -0.022
  R0019373             JUNCTION     0.000    0.000     0  04:15     0.00189     0.00189      -0.059
  R0019254             JUNCTION     0.000    0.001     0  04:00     0.00154     0.00335      -0.186
  R0019716             JUNCTION     0.000    0.005     0  04:15     0.00239      0.0298      -0.065
  R0019946             JUNCTION     0.000    0.005     0  04:17           0      0.0299       0.083
  R0013935             JUNCTION     0.000    0.000     0  04:00     0.00147     0.00147      -0.099
  R0019939             JUNCTION     0.000    0.000     0  03:50    0.000532       0.002      -0.055
  R0019944             JUNCTION     0.000    0.007     0  04:18     0.00137      0.0383       0.005
  R0043703             JUNCTION     0.000    0.006     0  04:17     0.00167      0.0315      -0.012
  R0019945             JUNCTION     0.000    0.007     0  04:18           0      0.0369       0.007
  R0039621             JUNCTION     0.000    0.000     0  00:00           0           0       0.000 ltr
  R0019838             JUNCTION     0.001    0.001     0  04:15     0.00334     0.00334       0.007
  R0039606             JUNCTION     0.000    0.001     0  04:18           0     0.00685       0.195
  R0019204             JUNCTION     0.000    0.000     0  00:00           0           0       0.000 ltr
  R0019205             JUNCTION     0.000    0.000     0  00:00           0           0       0.000 ltr
  R0019849             JUNCTION     0.000    0.001     0  04:01           0     0.00543       0.008
  R0019371             JUNCTION     0.000    0.000     0  00:00           0           0       0.000 ltr
  R0019718             JUNCTION     0.000    0.003     0  04:00     0.00205      0.0166       0.078
  R0021442             JUNCTION     0.000    0.001     0  04:00     0.00238     0.00542      -0.024
  R0019247             JUNCTION     0.000    0.001     0  04:00     0.00106     0.00648      -0.185
  R0019719             JUNCTION     0.000    0.001     0  04:00     0.00112     0.00674       0.008
  R0019767             JUNCTION     0.000    0.010     0  04:20           0      0.0536       0.003
  R0019768             JUNCTION     0.000    0.010     0  04:21           0      0.0536       0.006
  R0021453             JUNCTION     0.000    0.000     0  04:00     0.00134     0.00134       0.012
  R0019839             JUNCTION     0.001    0.001     0  04:15      0.0033     0.00664      -0.042
  R0019717             JUNCTION     0.001    0.005     0  04:02     0.00414      0.0274      -0.000
  R0019252             JUNCTION     0.000    0.000     0  04:00     0.00181     0.00181      -0.097
  R0019721             JUNCTION     0.000    0.000     0  03:50    0.000468     0.00206      -0.024
  R0019942             JUNCTION     0.000    0.001     0  04:00           0     0.00343       0.059
  R0019206             JUNCTION     0.000    0.000     0  00:00           0           0       0.000 ltr
  R0019840             JUNCTION     0.000    0.002     0  04:16           0       0.012       0.021
  R0043702             JUNCTION     0.001    0.003     0  04:16      0.0033      0.0153       0.002
  R0019723             JUNCTION     0.000    0.000     0  03:50     0.00126     0.00159      -0.148
  R0019724             JUNCTION     0.000    0.000     0  03:45    0.000331    0.000331       0.038
  R0021433             JUNCTION     0.000    0.000     0  04:15     0.00188     0.00188      -0.114
  R0021435             JUNCTION     0.000    0.001     0  04:00     0.00116     0.00304       0.051
  R0019769             OUTFALL      0.000    0.010     0  04:21           0      0.0536       0.000
  
  
  **********************
  Node Surcharge Summary
  **********************
  
  No nodes were surcharged.
  
  
  *********************
  Node Flooding Summary
  *********************
  
  No nodes were flooded.
  
  
  ***********************
  Outfall Loading Summary
  ***********************
  
  -----------------------------------------------------------
                         Flow       Avg       Max       Total
                         Freq      Flow      Flow      Volume
  Outfall Node           Pcnt       CMS       CMS    10^6 ltr
  -----------------------------------------------------------
  R0019769               5.42     0.004     0.010       0.054
  -----------------------------------------------------------
  System                 5.42     0.004     0.010       0.054
  
  
  ********************
  Link Flow Summary
  ********************
  
  -----------------------------------------------------------------------------
                                 Maximum  Time of Max   Maximum    Max/    Max/
                                  |Flow|   Occurrence   |Veloc|    Full    Full
  Link                 Type          CMS  days hr:min     m/sec    Flow   Depth
  -----------------------------------------------------------------------------
  H0014431             CONDUIT     0.001     0  04:16      0.26    0.01    0.09
  H0014433             CONDUIT     0.000     0  04:00      0.18    0.00    0.06
  H0014352             CONDUIT     0.010     0  04:18      0.69    0.00    0.06
  H0014373             CONDUIT     0.010     0  04:20      0.92    0.00    0.05
  H0017981             CONDUIT     0.001     0  04:02      0.23    0.02    0.08
  H0017755             CONDUIT     0.001     0  04:03      0.35    0.01    0.07
  H0017791             CONDUIT     0.001     0  04:16      0.14    0.00    0.03
  H0017357             CONDUIT     0.000     0  00:00      0.00    0.00    0.03
  H0018216             CONDUIT     0.001     0  04:00      0.23    0.01    0.09
  H0016792             CONDUIT     0.005     0  04:17      0.33    0.00    0.06
  H0019507             CONDUIT     0.000     0  04:00      0.18    0.00    0.06
  H0019998             CONDUIT     0.007     0  04:18      0.75    0.00    0.04
  H0019576             CONDUIT     0.006     0  04:18      0.54    0.00    0.05
  H0020087             CONDUIT     0.000     0  00:00      0.00    0.00    0.03
  H0020211             CONDUIT     0.005     0  04:19      0.30    0.01    0.07
  H0018982             CONDUIT     0.001     0  04:18      0.20    0.00    0.03
  H0018753             CONDUIT     0.000     0  04:15      0.18    0.01    0.07
  H0018845             CONDUIT     0.000     0  00:00      0.00    0.00    0.00
  H0018863             CONDUIT     0.000     0  03:51      0.18    0.01    0.07
  H0019156             CONDUIT     0.000     0  00:00      0.00    0.00    0.00
  H0018929             CONDUIT     0.003     0  04:02      0.23    0.00    0.05
  H0018440             CONDUIT     0.001     0  04:00      0.30    0.02    0.10
  H0018456             CONDUIT     0.001     0  04:01      0.33    0.01    0.06
  H0018968             CONDUIT     0.010     0  04:21      1.05    0.00    0.04
  H0022036             CONDUIT     0.000     0  04:00      0.32    0.00    0.01
  H0021806             CONDUIT     0.001     0  04:01      0.30    0.01    0.07
  H0022111             CONDUIT     0.001     0  04:16      0.18    0.00    0.05
  H0021440             CONDUIT     0.005     0  04:02      0.56    0.00    0.04
  H0021704             CONDUIT     0.003     0  04:04      0.27    0.01    0.05
  H0020521             CONDUIT     0.000     0  04:00      0.17    0.01    0.07
  H0020755             CONDUIT     0.000     0  03:52      0.18    0.00    0.05
  H0020530             CONDUIT     0.010     0  04:19      0.66    0.01    0.06
  H0020618             CONDUIT     0.007     0  04:18      0.70    0.00    0.04
  H0021163             CONDUIT     0.001     0  04:00      0.31    0.01    0.07
  H0020497             CONDUIT     0.000     0  00:00      0.00    0.00    0.07
  H0024325             CONDUIT     0.001     0  04:16      0.43    0.00    0.04
  H0023585             CONDUIT     0.003     0  04:17      0.63    0.01    0.06
  H0024098             CONDUIT     0.001     0  04:01      0.38    0.01    0.11
  H0024235             CONDUIT     0.001     0  04:01      0.35    0.01    0.05
  H0024282             CONDUIT     0.000     0  00:00      0.00    0.00    0.00
  H0024308             CONDUIT     0.010     0  04:21      1.18    0.00    0.04
  H0024498             CONDUIT     0.001     0  04:01      0.36    0.02    0.08
  H0026990             CONDUIT     0.000     0  03:51      0.18    0.00    0.04
  H0041650             CONDUIT     0.001     0  04:01      0.22    0.00    0.03
  H0041011             CONDUIT     0.001     0  04:01      0.32    0.01    0.07
  H0045103             CONDUIT     0.001     0  04:19      0.23    0.00    0.03
  H0045104             CONDUIT     0.010     0  04:20      0.98    0.00    0.04
  H0045105             CONDUIT     0.000     0  03:46      0.10    0.00    0.04
  H0045106             CONDUIT     0.002     0  04:17      0.63    0.00    0.05
  H0045107             CONDUIT     0.000     0  04:15      0.20    0.01    0.06
  H0045108             CONDUIT     0.001     0  04:00      0.21    0.01    0.08
  
  
  ***************************
  Flow Classification Summary
  ***************************
  
  -------------------------------------------------------------------------------------
                      Adjusted    ---------- Fraction of Time in Flow Class ---------- 
                       /Actual         Up    Down  Sub   Sup   Up    Down  Norm  Inlet 
  Conduit               Length    Dry  Dry   Dry   Crit  Crit  Crit  Crit  Ltd   Ctrl  
  -------------------------------------------------------------------------------------
  H0014431                1.00   0.05  0.00  0.00  0.95  0.00  0.00  0.00  0.95  0.00
  H0014433                1.00   0.05  0.00  0.00  0.95  0.00  0.00  0.00  0.95  0.00
  H0014352                1.00   0.05  0.00  0.00  0.92  0.03  0.00  0.00  0.95  0.00
  H0014373                1.00   0.05  0.00  0.00  0.90  0.05  0.00  0.00  0.89  0.00
  H0017981                1.00   0.05  0.00  0.00  0.00  0.00  0.00  0.95  0.00  0.00
  H0017755                1.00   0.05  0.00  0.00  0.00  0.00  0.00  0.95  0.00  0.00
  H0017791                1.00   0.05  0.00  0.00  0.95  0.00  0.00  0.00  0.95  0.00
  H0017357                1.00   0.05  0.95  0.00  0.00  0.00  0.00  0.00  0.00  0.00
  H0018216                1.00   0.05  0.90  0.00  0.06  0.00  0.00  0.00  0.95  0.00
  H0016792                1.00   0.05  0.89  0.00  0.06  0.00  0.00  0.00  0.95  0.00
  H0019507                1.00   0.05  0.00  0.00  0.95  0.00  0.00  0.00  0.95  0.00
  H0019998                1.00   0.05  0.00  0.00  0.91  0.05  0.00  0.00  0.06  0.00
  H0019576                1.00   0.05  0.00  0.00  0.94  0.01  0.00  0.00  0.06  0.00
  H0020087                1.00   0.05  0.95  0.00  0.00  0.00  0.00  0.00  0.00  0.00
  H0020211                1.00   0.05  0.00  0.00  0.95  0.00  0.00  0.00  0.89  0.00
  H0018982                1.00   0.05  0.00  0.00  0.95  0.00  0.00  0.00  0.91  0.00
  H0018753                1.00   0.05  0.00  0.00  0.95  0.00  0.00  0.00  0.95  0.00
  H0018845                1.00   1.00  0.00  0.00  0.00  0.00  0.00  0.00  0.00  0.00
  H0018863                1.00   0.05  0.00  0.00  0.95  0.00  0.00  0.00  0.95  0.00
  H0019156                1.00   1.00  0.00  0.00  0.00  0.00  0.00  0.00  0.00  0.00
  H0018929                1.00   0.05  0.90  0.00  0.06  0.00  0.00  0.00  0.95  0.00
  H0018440                1.00   0.05  0.00  0.00  0.95  0.00  0.00  0.00  0.95  0.00
  H0018456                1.00   0.05  0.00  0.00  0.95  0.00  0.00  0.00  0.95  0.00
  H0018968                1.00   0.05  0.00  0.00  0.90  0.05  0.00  0.00  0.91  0.00
  H0022036                1.00   0.05  0.00  0.00  0.00  0.00  0.00  0.95  0.00  0.00
  H0021806                1.00   0.05  0.90  0.00  0.06  0.00  0.00  0.00  0.94  0.00
  H0022111                1.00   0.05  0.00  0.00  0.95  0.00  0.00  0.00  0.00  0.00
  H0021440                1.00   0.05  0.00  0.00  0.92  0.03  0.00  0.00  0.00  0.00
  H0021704                1.00   0.05  0.00  0.00  0.00  0.00  0.00  0.95  0.00  0.00
  H0020521                1.00   0.05  0.00  0.00  0.95  0.00  0.00  0.00  0.95  0.00
  H0020755                1.00   0.05  0.90  0.00  0.05  0.00  0.00  0.00  0.95  0.00
  H0020530                1.00   0.05  0.00  0.00  0.92  0.03  0.00  0.00  0.00  0.00
  H0020618                1.00   0.05  0.00  0.00  0.91  0.04  0.00  0.00  0.89  0.00
  H0021163                1.00   0.05  0.00  0.00  0.95  0.00  0.00  0.00  0.91  0.00
  H0020497                1.20   0.05  0.95  0.00  0.00  0.00  0.00  0.00  0.00  0.00
  H0024325                1.00   0.05  0.00  0.00  0.92  0.03  0.00  0.00  0.91  0.00
  H0023585                1.00   0.05  0.00  0.00  0.00  0.00  0.00  0.95  0.00  0.00
  H0024098                1.00   0.05  0.90  0.00  0.05  0.00  0.00  0.00  0.95  0.00
  H0024235                1.00   0.05  0.00  0.00  0.00  0.00  0.00  0.95  0.00  0.00
  H0024282                1.00   1.00  0.00  0.00  0.00  0.00  0.00  0.00  0.00  0.00
  H0024308                1.00   0.05  0.00  0.00  0.89  0.06  0.00  0.00  0.01  0.00
  H0024498                1.00   0.05  0.00  0.00  0.00  0.00  0.00  0.95  0.00  0.00
  H0026990                1.00   0.05  0.00  0.00  0.95  0.00  0.00  0.00  0.95  0.00
  H0041650                1.00   0.94  0.01  0.00  0.05  0.00  0.00  0.00  0.95  0.00
  H0041011                1.00   0.05  0.00  0.00  0.95  0.00  0.00  0.00  0.95  0.00
  H0045103                1.00   0.05  0.00  0.00  0.95  0.00  0.00  0.00  0.95  0.00
  H0045104                1.00   0.05  0.00  0.00  0.90  0.05  0.00  0.00  0.06  0.00
  H0045105                1.00   0.05  0.00  0.00  0.95  0.00  0.00  0.00  0.95  0.00
  H0045106                1.00   0.05  0.90  0.00  0.02  0.04  0.00  0.00  0.95  0.00
  H0045107                1.00   0.05  0.00  0.00  0.95  0.00  0.00  0.00  0.95  0.00
  H0045108                1.00   0.05  0.00  0.00  0.95  0.00  0.00  0.00  0.95  0.00
  
  
  *************************
  Conduit Surcharge Summary
  *************************
  
  No conduits were surcharged.
  

  Analysis begun on:  Fri Mar 22 15:55:00 2024
  Analysis ended on:  Fri Mar 22 15:55:09 2024
  Total elapsed time: 00:00:09