
  EPA STORM WATER MANAGEMENT MODEL - VERSION 5.2 (Build 5.2.4)
  PYSWMM TOOLKIT API - VERSION v1.0 (2023-11-27)
  ------------------------------------------------------------

  Gievenbeck_e2_T5D90 
  
  ****************
  Analysis Options
  ****************
  Flow Units ............... CMS
  Process Models:
    Rainfall/Runoff ........ YES
    RDII ................... NO
    Snowmelt ............... NO
    Groundwater ............ NO
    Flow Routing ........... YES
    Ponding Allowed ........ NO
    Water Quality .......... NO
  Infiltration Method ...... HORTON
  Flow Routing Method ...... DYNWAVE
  Surcharge Method ......... SLOT
  Starting Date ............ 01/01/2024 00:00:00
  Ending Date .............. 01/04/2024 04:00:00
  Antecedent Dry Days ...... 14.0
  Report Time Step ......... 00:01:00
  Wet Time Step ............ 00:01:00
  Dry Time Step ............ 00:01:00
  Routing Time Step ........ 1.00 sec
  Variable Time Step ....... YES
  Maximum Trials ........... 8
  Number of Threads ........ 1
  Head Tolerance ........... 0.001500 m
  
  
  **************************        Volume         Depth
  Runoff Quantity Continuity     hectare-m            mm
  **************************     ---------       -------
  Total Precipitation ......         0.268        26.510
  Evaporation Loss .........         0.010         0.955
  Infiltration Loss ........         0.143        14.102
  Surface Runoff ...........         0.116        11.488
  Final Storage ............         0.000         0.000
  Continuity Error (%) .....        -0.132
  
  
  **************************        Volume        Volume
  Flow Routing Continuity        hectare-m      10^6 ltr
  **************************     ---------     ---------
  Dry Weather Inflow .......         0.000         0.000
  Wet Weather Inflow .......         0.116         1.163
  Groundwater Inflow .......         0.000         0.000
  RDII Inflow ..............         0.000         0.000
  External Inflow ..........         0.000         0.000
  External Outflow .........         0.116         1.163
  Flooding Loss ............         0.000         0.000
  Evaporation Loss .........         0.000         0.000
  Exfiltration Loss ........         0.000         0.000
  Initial Stored Volume ....         0.000         0.000
  Final Stored Volume ......         0.000         0.000
  Continuity Error (%) .....         0.007
  
  
  *************************
  Highest Continuity Errors
  *************************
  Node R0019373 (2.30%)
  Node R0019718 (-1.20%)
  
  
  ***************************
  Time-Step Critical Elements
  ***************************
  None
  
  
  ********************************
  Highest Flow Instability Indexes
  ********************************
  All links are stable.
  
  
  *********************************
  Most Frequent Nonconverging Nodes
  *********************************
  Convergence obtained at all time steps.
  
  
  *************************
  Routing Time Step Summary
  *************************
  Minimum Time Step           :     0.15 sec
  Average Time Step           :     1.00 sec
  Maximum Time Step           :     1.00 sec
  % of Time in Steady State   :     0.00
  Average Iterations per Step :     2.00
  % of Steps Not Converging   :     0.00
  Time Step Frequencies       :
      1.000 -  0.871 sec      :   100.00 %
      0.871 -  0.758 sec      :     0.00 %
      0.758 -  0.660 sec      :     0.00 %
      0.660 -  0.574 sec      :     0.00 %
      0.574 -  0.500 sec      :     0.00 %
  
  
  ***************************
  Subcatchment Runoff Summary
  ***************************
  
  ------------------------------------------------------------------------------------------------------------------------------
                            Total      Total      Total      Total     Imperv       Perv      Total       Total     Peak  Runoff
                           Precip      Runon       Evap      Infil     Runoff     Runoff     Runoff      Runoff   Runoff   Coeff
  Subcatchment                 mm         mm         mm         mm         mm         mm         mm    10^6 ltr      CMS
  ------------------------------------------------------------------------------------------------------------------------------
  EZG_368                   26.51       0.00       0.95      14.20      12.33       0.91      11.39        0.05     0.07   0.430
  EZG_392                   26.51       0.00       0.95      14.13      12.34       0.98      11.47        0.04     0.06   0.433
  EZG_352                   26.51       0.00       0.95      14.30      12.32       0.81      11.28        0.07     0.10   0.426
  EZG_372                   26.51       0.00       0.94      13.87      12.35       1.25      11.75        0.02     0.03   0.443
  EZG_416                   26.51       0.00       0.94      14.10      12.34       1.01      11.50        0.03     0.05   0.434
  EZG_388                   26.51       0.00       0.95      14.23      12.33       0.88      11.36        0.05     0.08   0.429
  EZG_394                   26.51       0.00       0.94      14.09      12.34       1.03      11.52        0.03     0.05   0.434
  EZG_400                   26.51       0.00       0.94      14.07      12.34       1.05      11.54        0.03     0.05   0.435
  EZG_390                   26.51       0.00       0.95      14.13      12.34       0.99      11.47        0.04     0.06   0.433
  EZG_350                   26.51       0.00       0.95      14.23      12.33       0.88      11.36        0.05     0.08   0.428
  EZG_370                   26.51       0.00       0.95      14.16      12.34       0.95      11.43        0.04     0.06   0.431
  EZG_398                   26.51       0.00       0.93      13.78      12.36       1.35      11.85        0.01     0.02   0.447
  EZG_382                   26.51       0.00       0.93      13.74      12.36       1.38      11.89        0.01     0.02   0.449
  EZG_374                   26.51       0.00       1.14      11.71      14.79       1.12      13.69        0.05     0.08   0.517
  EZG_412                   26.51       0.00       0.92      13.50      12.38       1.63      12.15        0.00     0.01   0.458
  EZG_344                   26.51       0.00       0.94      14.06      12.34       1.05      11.54        0.03     0.05   0.435
  EZG_376                   26.51       0.00       0.94      13.99      12.35       1.13      11.62        0.02     0.04   0.438
  EZG_356                   26.51       0.00       0.96      14.32      12.32       0.79      11.26        0.07     0.11   0.425
  EZG_386                   26.51       0.00       0.96      14.38      12.32       0.73      11.20        0.09     0.13   0.422
  EZG_380                   26.51       0.00       0.95      14.19      12.33       0.93      11.41        0.04     0.07   0.430
  EZG_378                   26.51       0.00       0.95      14.15      12.34       0.96      11.45        0.04     0.06   0.432
  EZG_414                   26.51       0.00       0.93      13.74      12.36       1.39      11.90        0.01     0.02   0.449
  EZG_402                   26.51       0.00       0.95      14.14      12.34       0.98      11.47        0.04     0.06   0.432
  EZG_358                   26.51       0.00       0.96      14.32      12.32       0.79      11.26        0.07     0.11   0.425
  EZG_364                   26.51       0.00       0.96      14.32      12.32       0.79      11.26        0.07     0.11   0.425
  EZG_410                   26.51       0.00       0.94      14.01      12.35       1.11      11.60        0.02     0.04   0.438
  EZG_366                   26.51       0.00       0.94      14.05      12.34       1.07      11.56        0.03     0.04   0.436
  EZG_18259                 26.51       0.00       0.94      14.04      12.34       1.07      11.56        0.03     0.04   0.436
  EZG_18258                 26.51       0.00       0.93      13.63      12.37       1.50      12.01        0.01     0.01   0.453
  EZG_346                   26.51       0.00       0.93      14.41      12.09       0.93      11.21        0.04     0.06   0.423
  EZG_348                   26.51       0.00       0.92      14.27      12.10       1.08      11.36        0.03     0.04   0.429
  
  
  ******************
  Node Depth Summary
  ******************
  
  ---------------------------------------------------------------------------------
                                 Average  Maximum  Maximum  Time of Max    Reported
                                   Depth    Depth      HGL   Occurrence   Max Depth
  Node                 Type       Meters   Meters   Meters  days hr:min      Meters
  ---------------------------------------------------------------------------------
  R0019466             JUNCTION     0.00     0.77    70.22     0  02:35        0.77
  R0019468             JUNCTION     0.00     0.68    69.99     0  02:35        0.68
  R0019831             JUNCTION     0.00     0.97    70.14     0  02:35        0.92
  R0019825             JUNCTION     0.00     1.16    70.00     0  02:35        1.11
  R0019843             JUNCTION     0.00     0.52    68.15     0  02:36        0.52
  R0019368             JUNCTION     0.01     0.74    67.53     0  02:36        0.74
  R0019369             JUNCTION     0.00     0.55    67.14     0  02:36        0.53
  R0019370             JUNCTION     0.00     0.47    66.37     0  02:36        0.45
  R0019345             JUNCTION     0.00     0.45    70.35     0  02:35        0.44
  R0019346             JUNCTION     0.00     0.36    70.16     0  02:35        0.34
  R0043600             JUNCTION     0.00     0.45    70.12     0  02:35        0.43
  R0019203             JUNCTION     0.00     0.45    69.99     0  02:35        0.44
  R0043594             JUNCTION     0.00     0.30    70.03     0  02:35        0.30
  R0021458             JUNCTION     0.00     0.38    70.03     0  02:35        0.37
  R0019202             JUNCTION     0.00     0.42    70.00     0  02:35        0.41
  R0019373             JUNCTION     0.00     0.55    70.22     0  02:35        0.55
  R0019254             JUNCTION     0.00     0.85    70.89     0  02:35        0.83
  R0019716             JUNCTION     0.00     0.49    69.50     0  02:35        0.49
  R0019946             JUNCTION     0.01     0.68    69.30     0  02:36        0.68
  R0013935             JUNCTION     0.00     0.69    69.52     0  02:35        0.66
  R0019939             JUNCTION     0.00     0.85    69.42     0  02:35        0.81
  R0019944             JUNCTION     0.00     0.42    68.70     0  02:36        0.42
  R0043703             JUNCTION     0.00     0.53    69.13     0  02:36        0.53
  R0019945             JUNCTION     0.00     0.54    68.94     0  02:36        0.53
  R0039621             JUNCTION     0.00     0.20    69.77     0  02:35        0.19
  R0019838             JUNCTION     0.00     0.30    69.76     0  02:35        0.30
  R0039606             JUNCTION     0.00     0.41    70.00     0  02:35        0.40
  R0019204             JUNCTION     0.00     0.00    69.91     0  00:00        0.00
  R0019205             JUNCTION     0.00     0.00    69.62     0  00:00        0.00
  R0019849             JUNCTION     0.00     0.81    69.33     0  02:35        0.77
  R0019371             JUNCTION     0.00     0.00    70.41     0  00:00        0.00
  R0019718             JUNCTION     0.00     0.53    69.95     0  02:35        0.53
  R0021442             JUNCTION     0.00     1.89    71.94     0  02:35        1.81
  R0019247             JUNCTION     0.00     0.81    70.69     0  02:35        0.78
  R0019719             JUNCTION     0.00     0.35    70.03     0  02:35        0.34
  R0019767             JUNCTION     0.00     0.49    65.22     0  02:36        0.48
  R0019768             JUNCTION     0.00     0.42    64.19     0  02:36        0.42
  R0021453             JUNCTION     0.00     0.12    70.07     0  02:35        0.12
  R0019839             JUNCTION     0.00     0.28    69.67     0  02:35        0.28
  R0019717             JUNCTION     0.00     0.47    69.81     0  02:35        0.47
  R0019252             JUNCTION     0.00     0.90    71.09     0  02:35        0.89
  R0019721             JUNCTION     0.00     0.32    70.19     0  02:35        0.31
  R0019942             JUNCTION     0.00     0.81    69.46     0  02:35        0.75
  R0019206             JUNCTION     0.00     0.00    69.07     0  00:00        0.00
  R0019840             JUNCTION     0.00     0.25    69.22     0  02:35        0.25
  R0043702             JUNCTION     0.00     0.39    69.09     0  02:35        0.38
  R0019723             JUNCTION     0.00     0.18    70.26     0  02:35        0.18
  R0019724             JUNCTION     0.00     0.11    70.27     0  02:35        0.11
  R0021433             JUNCTION     0.00     2.00    72.39     0  02:35        1.88
  R0021435             JUNCTION     0.00     2.06    72.24     0  02:35        1.95
  R0019769             OUTFALL      0.00     0.42    63.80     0  02:37        0.42
  
  
  *******************
  Node Inflow Summary
  *******************
  
  -------------------------------------------------------------------------------------------------
                                  Maximum  Maximum                  Lateral       Total        Flow
                                  Lateral    Total  Time of Max      Inflow      Inflow     Balance
                                   Inflow   Inflow   Occurrence      Volume      Volume       Error
  Node                 Type           CMS      CMS  days hr:min    10^6 ltr    10^6 ltr     Percent
  -------------------------------------------------------------------------------------------------
  R0019466             JUNCTION     0.073    0.086     0  02:32      0.0471      0.0779       0.146
  R0019468             JUNCTION     0.045    0.115     0  02:35      0.0277       0.105      -0.042
  R0019831             JUNCTION     0.058    0.058     0  02:35      0.0371      0.0371       0.120
  R0019825             JUNCTION     0.059    0.110     0  02:35      0.0373      0.0743       0.260
  R0019843             JUNCTION     0.000    1.467     0  02:36           0        1.16      -0.005
  R0019368             JUNCTION     0.000    1.473     0  02:36           0        1.16       0.010
  R0019369             JUNCTION     0.000    1.481     0  02:36           0        1.16      -0.008
  R0019370             JUNCTION     0.000    1.483     0  02:36           0        1.16       0.004
  R0019345             JUNCTION     0.000    0.109     0  02:35           0      0.0727       0.077
  R0019346             JUNCTION     0.009    0.178     0  02:35     0.00485       0.123      -0.023
  R0043600             JUNCTION     0.000    0.191     0  02:35           0       0.141      -0.092
  R0019203             JUNCTION     0.018    0.451     0  02:35      0.0105       0.326      -0.003
  R0043594             JUNCTION     0.100    0.146     0  02:35      0.0667      0.0959      -0.045
  R0021458             JUNCTION     0.080    0.207     0  02:35      0.0521       0.148      -0.009
  R0019202             JUNCTION     0.027    0.247     0  02:35      0.0159       0.173      -0.480
  R0019373             JUNCTION     0.064    0.065     0  02:35       0.041      0.0413       2.351
  R0019254             JUNCTION     0.053    0.111     0  02:35      0.0335      0.0728       0.067
  R0019716             JUNCTION     0.079    0.880     0  02:35      0.0518       0.659      -0.024
  R0019946             JUNCTION     0.000    0.884     0  02:35           0       0.659       0.011
  R0013935             JUNCTION     0.051    0.051     0  02:35      0.0319      0.0319       0.071
  R0019939             JUNCTION     0.020    0.067     0  02:35      0.0117      0.0437      -0.071
  R0019944             JUNCTION     0.048    1.097     0  02:36      0.0297       0.843       0.012
  R0043703             JUNCTION     0.057    0.928     0  02:36      0.0363       0.695       0.016
  R0019945             JUNCTION     0.000    1.073     0  02:36           0       0.813      -0.014
  R0039621             JUNCTION     0.000    0.006     0  02:31           0     0.00121       0.609
  R0019838             JUNCTION     0.107    0.107     0  02:35      0.0721      0.0734      -0.011
  R0039606             JUNCTION     0.000    0.173     0  02:35           0       0.148       0.072
  R0019204             JUNCTION     0.000    0.000     0  00:00           0           0       0.000 ltr
  R0019205             JUNCTION     0.000    0.000     0  00:00           0           0       0.000 ltr
  R0019849             JUNCTION     0.000    0.166     0  02:35           0       0.118       0.019
  R0019371             JUNCTION     0.000    0.000     0  00:00           0           0       0.000 ltr
  R0019718             JUNCTION     0.069    0.503     0  02:35      0.0444        0.37      -1.183
  R0021442             JUNCTION     0.079    0.163     0  02:35      0.0519       0.118       0.062
  R0019247             JUNCTION     0.038    0.191     0  02:35      0.0232       0.141       0.068
  R0019719             JUNCTION     0.040    0.209     0  02:35      0.0244       0.147       0.608
  R0019767             JUNCTION     0.000    1.488     0  02:36           0        1.16      -0.009
  R0019768             JUNCTION     0.000    1.487     0  02:36           0        1.16       0.013
  R0021453             JUNCTION     0.047    0.047     0  02:35      0.0292      0.0292      -0.094
  R0019839             JUNCTION     0.106    0.204     0  02:35      0.0713       0.143      -0.004
  R0019717             JUNCTION     0.130    0.812     0  02:35      0.0894        0.61       0.563
  R0019252             JUNCTION     0.062    0.062     0  02:35      0.0392      0.0392      -0.093
  R0019721             JUNCTION     0.018    0.072     0  02:35      0.0103      0.0452       0.013
  R0019942             JUNCTION     0.000    0.105     0  02:35           0      0.0741      -0.339
  R0019206             JUNCTION     0.000    0.000     0  00:00           0           0       0.000 ltr
  R0019840             JUNCTION     0.000    0.314     0  02:35           0       0.249       0.005
  R0043702             JUNCTION     0.106    0.410     0  02:35      0.0714        0.32       0.001
  R0019723             JUNCTION     0.044    0.057     0  02:35      0.0275      0.0348      -0.071
  R0019724             JUNCTION     0.013    0.013     0  02:35     0.00735     0.00735      -0.080
  R0021433             JUNCTION     0.064    0.064     0  02:35      0.0408      0.0408      -0.223
  R0021435             JUNCTION     0.041    0.094     0  02:35      0.0253      0.0661      -0.028
  R0019769             OUTFALL      0.000    1.491     0  02:37           0        1.16       0.000
  
  
  **********************
  Node Surcharge Summary
  **********************
  
  Surcharging occurs when water rises above the top of the highest conduit.
  ---------------------------------------------------------------------
                                               Max. Height   Min. Depth
                                   Hours       Above Crown    Below Rim
  Node                 Type      Surcharged         Meters       Meters
  ---------------------------------------------------------------------
  R0019466             JUNCTION        0.12          0.473        2.037
  R0019468             JUNCTION        0.11          0.385        2.045
  R0019831             JUNCTION        0.05          0.673        0.687
  R0019825             JUNCTION        0.09          0.860        0.340
  R0019345             JUNCTION        0.05          0.149        1.601
  R0043600             JUNCTION        0.03          0.051        2.529
  R0019373             JUNCTION        0.05          0.248        2.252
  R0019254             JUNCTION        0.08          0.546        1.284
  R0013935             JUNCTION        0.06          0.388        0.932
  R0019939             JUNCTION        0.12          0.554        1.066
  R0019849             JUNCTION        0.13          0.512        1.418
  R0021442             JUNCTION        0.14          1.590        0.160
  R0019247             JUNCTION        0.07          0.410        1.450
  R0019252             JUNCTION        0.06          0.603        1.037
  R0019942             JUNCTION        0.10          0.513        1.137
  R0021433             JUNCTION        0.09          1.697        0.153
  R0021435             JUNCTION        0.12          1.759        0.051
  
  
  *********************
  Node Flooding Summary
  *********************
  
  No nodes were flooded.
  
  
  ***********************
  Outfall Loading Summary
  ***********************
  
  -----------------------------------------------------------
                         Flow       Avg       Max       Total
                         Freq      Flow      Flow      Volume
  Outfall Node           Pcnt       CMS       CMS    10^6 ltr
  -----------------------------------------------------------
  R0019769               5.15     0.083     1.491       1.163
  -----------------------------------------------------------
  System                 5.15     0.083     1.491       1.163
  
  
  ********************
  Link Flow Summary
  ********************
  
  -----------------------------------------------------------------------------
                                 Maximum  Time of Max   Maximum    Max/    Max/
                                  |Flow|   Occurrence   |Veloc|    Full    Full
  Link                 Type          CMS  days hr:min     m/sec    Flow   Depth
  -----------------------------------------------------------------------------
  H0014431             CONDUIT     0.073     0  02:32      1.04    1.36    1.00
  H0014433             CONDUIT     0.053     0  02:35      0.75    0.68    1.00
  H0014352             CONDUIT     1.473     0  02:36      3.15    0.60    0.69
  H0014373             CONDUIT     1.483     0  02:36      4.03    0.68    0.56
  H0017981             CONDUIT     0.109     0  02:35      1.54    3.08    1.00
  H0017755             CONDUIT     0.191     0  02:35      1.52    1.55    1.00
  H0017791             CONDUIT     0.128     0  02:35      0.64    0.19    0.38
  H0017357             CONDUIT     0.065     0  02:35      0.91    1.03    1.00
  H0018216             CONDUIT     0.109     0  02:35      1.54    1.99    1.00
  H0016792             CONDUIT     0.884     0  02:35      2.02    0.51    0.65
  H0019507             CONDUIT     0.047     0  02:35      0.72    0.65    1.00
  H0019998             CONDUIT     1.102     0  02:36      3.35    0.44    0.52
  H0019576             CONDUIT     0.935     0  02:36      2.41    0.63    0.59
  H0020087             CONDUIT     0.007     0  02:36      0.15    0.03    0.50
  H0020211             CONDUIT     0.896     0  02:36      2.01    2.23    0.67
  H0018982             CONDUIT     0.173     0  02:35      0.82    0.28    0.44
  H0018753             CONDUIT     0.038     0  02:32      0.62    0.53    1.00
  H0018845             CONDUIT     0.000     0  00:00      0.00    0.00    0.00
  H0018863             CONDUIT     0.064     0  02:35      0.90    1.49    1.00
  H0019156             CONDUIT     0.000     0  00:00      0.00    0.00    0.00
  H0018929             CONDUIT     0.451     0  02:35      1.29    0.39    0.54
  H0018440             CONDUIT     0.158     0  02:35      2.24    2.83    1.00
  H0018456             CONDUIT     0.177     0  02:35      1.50    1.07    0.89
  H0018968             CONDUIT     1.487     0  02:36      4.64    0.57    0.51
  H0022036             CONDUIT     0.046     0  02:35      0.49    0.04    0.21
  H0021806             CONDUIT     0.191     0  02:35      1.52    1.69    1.00
  H0022111             CONDUIT     0.099     0  02:35      0.84    0.71    0.58
  H0021440             CONDUIT     0.822     0  02:35      2.40    0.53    0.53
  H0021704             CONDUIT     0.508     0  02:36      1.52    0.97    0.54
  H0020521             CONDUIT     0.059     0  02:35      0.83    1.19    1.00
  H0020755             CONDUIT     0.065     0  02:36      0.64    0.72    0.85
  H0020530             CONDUIT     1.481     0  02:36      3.09    1.27    0.71
  H0020618             CONDUIT     1.072     0  02:36      3.12    0.66    0.53
  H0021163             CONDUIT     0.105     0  02:35      1.48    1.75    1.00
  H0020497             CONDUIT     0.000     0  00:00      0.00    0.00    0.86
  H0024325             CONDUIT     0.200     0  02:35      1.88    0.60    0.53
  H0023585             CONDUIT     0.408     0  02:35      2.54    0.94    0.77
  H0024098             CONDUIT     0.165     0  02:35      2.33    1.92    1.00
  H0024235             CONDUIT     0.208     0  02:35      1.47    0.85    0.69
  H0024282             CONDUIT     0.000     0  00:00      0.00    0.00    0.00
  H0024308             CONDUIT     1.491     0  02:37      5.18    0.44    0.46
  H0024498             CONDUIT     0.114     0  02:35      1.61    1.77    1.00
  H0026990             CONDUIT     0.055     0  02:35      0.74    0.41    0.62
  H0041650             CONDUIT     0.246     0  02:35      0.83    0.29    0.48
  H0041011             CONDUIT     0.104     0  02:35      1.47    1.03    1.00
  H0045103             CONDUIT     0.190     0  02:36      0.79    0.24    0.46
  H0045104             CONDUIT     1.488     0  02:36      4.33    0.53    0.53
  H0045105             CONDUIT     0.013     0  02:35      0.38    0.22    0.48
  H0045106             CONDUIT     0.314     0  02:35      2.37    0.42    0.64
  H0045107             CONDUIT     0.055     0  02:35      0.77    0.90    1.00
  H0045108             CONDUIT     0.090     0  02:35      1.28    1.63    1.00
  
  
  ***************************
  Flow Classification Summary
  ***************************
  
  -------------------------------------------------------------------------------------
                      Adjusted    ---------- Fraction of Time in Flow Class ---------- 
                       /Actual         Up    Down  Sub   Sup   Up    Down  Norm  Inlet 
  Conduit               Length    Dry  Dry   Dry   Crit  Crit  Crit  Crit  Ltd   Ctrl  
  -------------------------------------------------------------------------------------
  H0014431                1.00   0.03  0.00  0.00  0.97  0.00  0.00  0.00  0.97  0.00
  H0014433                1.00   0.03  0.00  0.00  0.97  0.00  0.00  0.00  0.97  0.00
  H0014352                1.00   0.03  0.00  0.00  0.94  0.03  0.00  0.00  0.97  0.00
  H0014373                1.00   0.03  0.00  0.00  0.93  0.05  0.00  0.00  0.91  0.00
  H0017981                1.00   0.03  0.00  0.00  0.00  0.00  0.00  0.97  0.00  0.00
  H0017755                1.00   0.03  0.00  0.00  0.00  0.00  0.00  0.97  0.00  0.00
  H0017791                1.00   0.03  0.00  0.00  0.97  0.00  0.00  0.00  0.97  0.00
  H0017357                1.00   0.03  0.97  0.00  0.00  0.00  0.00  0.00  0.97  0.00
  H0018216                1.00   0.03  0.92  0.00  0.05  0.00  0.00  0.00  0.97  0.00
  H0016792                1.00   0.03  0.91  0.00  0.06  0.00  0.00  0.00  0.97  0.00
  H0019507                1.00   0.03  0.00  0.00  0.97  0.00  0.00  0.00  0.97  0.00
  H0019998                1.00   0.03  0.00  0.00  0.93  0.05  0.00  0.00  0.06  0.00
  H0019576                1.00   0.03  0.00  0.00  0.95  0.02  0.00  0.00  0.06  0.00
  H0020087                1.00   0.03  0.96  0.00  0.02  0.00  0.00  0.00  0.96  0.00
  H0020211                1.00   0.03  0.00  0.00  0.97  0.00  0.00  0.00  0.91  0.00
  H0018982                1.00   0.03  0.00  0.00  0.97  0.00  0.00  0.00  0.93  0.00
  H0018753                1.00   0.03  0.00  0.00  0.97  0.00  0.00  0.00  0.97  0.00
  H0018845                1.00   1.00  0.00  0.00  0.00  0.00  0.00  0.00  0.00  0.00
  H0018863                1.00   0.03  0.00  0.00  0.97  0.00  0.00  0.00  0.97  0.00
  H0019156                1.00   1.00  0.00  0.00  0.00  0.00  0.00  0.00  0.00  0.00
  H0018929                1.00   0.03  0.92  0.00  0.05  0.00  0.00  0.00  0.97  0.00
  H0018440                1.00   0.03  0.00  0.00  0.97  0.00  0.00  0.00  0.96  0.00
  H0018456                1.00   0.03  0.00  0.00  0.97  0.00  0.00  0.00  0.97  0.00
  H0018968                1.00   0.03  0.00  0.00  0.92  0.05  0.00  0.00  0.93  0.00
  H0022036                1.00   0.03  0.00  0.00  0.02  0.00  0.00  0.95  0.02  0.00
  H0021806                1.00   0.03  0.92  0.00  0.05  0.00  0.00  0.00  0.95  0.00
  H0022111                1.00   0.03  0.00  0.00  0.97  0.00  0.00  0.00  0.00  0.00
  H0021440                1.00   0.03  0.00  0.00  0.94  0.03  0.00  0.00  0.02  0.00
  H0021704                1.00   0.03  0.00  0.00  0.00  0.00  0.00  0.97  0.00  0.00
  H0020521                1.00   0.03  0.00  0.00  0.97  0.00  0.00  0.00  0.97  0.00
  H0020755                1.00   0.03  0.92  0.00  0.05  0.00  0.00  0.00  0.97  0.00
  H0020530                1.00   0.03  0.00  0.00  0.94  0.03  0.00  0.00  0.01  0.00
  H0020618                1.00   0.03  0.00  0.00  0.93  0.04  0.00  0.00  0.93  0.00
  H0021163                1.00   0.03  0.00  0.00  0.96  0.01  0.00  0.00  0.93  0.00
  H0020497                1.20   0.03  0.97  0.00  0.00  0.00  0.00  0.00  0.00  0.00
  H0024325                1.00   0.03  0.00  0.00  0.94  0.03  0.00  0.00  0.93  0.00
  H0023585                1.00   0.03  0.00  0.00  0.00  0.00  0.00  0.97  0.00  0.00
  H0024098                1.00   0.03  0.92  0.00  0.05  0.00  0.00  0.00  0.97  0.00
  H0024235                1.00   0.03  0.00  0.00  0.00  0.00  0.00  0.97  0.00  0.00
  H0024282                1.00   1.00  0.00  0.00  0.00  0.00  0.00  0.00  0.00  0.00
  H0024308                1.00   0.03  0.00  0.00  0.91  0.06  0.00  0.00  0.01  0.00
  H0024498                1.00   0.03  0.00  0.00  0.00  0.00  0.00  0.97  0.00  0.00
  H0026990                1.00   0.03  0.00  0.00  0.97  0.00  0.00  0.00  0.97  0.00
  H0041650                1.00   0.95  0.01  0.00  0.04  0.00  0.00  0.00  0.96  0.00
  H0041011                1.00   0.03  0.00  0.00  0.97  0.00  0.00  0.00  0.97  0.00
  H0045103                1.00   0.03  0.00  0.00  0.97  0.00  0.00  0.00  0.94  0.00
  H0045104                1.00   0.03  0.00  0.00  0.92  0.05  0.00  0.00  0.06  0.00
  H0045105                1.00   0.03  0.00  0.00  0.97  0.00  0.00  0.00  0.97  0.00
  H0045106                1.00   0.03  0.92  0.00  0.02  0.03  0.00  0.00  0.97  0.00
  H0045107                1.00   0.03  0.00  0.00  0.97  0.00  0.00  0.00  0.97  0.00
  H0045108                1.00   0.03  0.00  0.00  0.97  0.00  0.00  0.00  0.97  0.00
  
  
  *************************
  Conduit Surcharge Summary
  *************************
  
  ----------------------------------------------------------------------------
                                                           Hours        Hours 
                         --------- Hours Full --------   Above Full   Capacity
  Conduit                Both Ends  Upstream  Dnstream   Normal Flow   Limited
  ----------------------------------------------------------------------------
  H0014431                    0.11      0.12      0.11      0.13         0.11
  H0014433                    0.05      0.05      0.09      0.01         0.01
  H0017981                    0.01      0.05      0.01      0.14         0.04
  H0017755                    0.01      0.03      0.01      0.08         0.01
  H0017357                    0.01      0.01      0.05      0.01         0.01
  H0018216                    0.05      0.08      0.05      0.10         0.07
  H0019507                    0.06      0.06      0.12      0.01         0.01
  H0020211                    0.01      0.01      0.01      0.12         0.01
  H0018753                    0.05      0.05      0.12      0.01         0.01
  H0018863                    0.12      0.12      0.13      0.05         0.05
  H0018440                    0.10      0.14      0.10      0.16         0.12
  H0018456                    0.01      0.01      0.01      0.02         0.01
  H0021806                    0.03      0.07      0.03      0.09         0.05
  H0020521                    0.06      0.06      0.08      0.03         0.04
  H0020530                    0.01      0.01      0.01      0.05         0.01
  H0021163                    0.08      0.09      0.10      0.10         0.07
  H0024098                    0.13      0.13      0.16      0.10         0.09
  H0024498                    0.01      0.11      0.01      0.14         0.08
  H0041011                    0.10      0.10      0.13      0.01         0.01
  H0045107                    0.09      0.09      0.12      0.01         0.01
  H0045108                    0.12      0.12      0.14      0.08         0.08
  

  Analysis begun on:  Fri Mar 22 15:57:07 2024
  Analysis ended on:  Fri Mar 22 15:57:13 2024
  Total elapsed time: 00:00:06