
  EPA STORM WATER MANAGEMENT MODEL - VERSION 5.2 (Build 5.2.4)
  PYSWMM TOOLKIT API - VERSION v1.0 (2023-11-27)
  ------------------------------------------------------------

  Gievenbeck_2017-07-20 13 35 00_hN7 19 
  
  ****************
  Analysis Options
  ****************
  Flow Units ............... CMS
  Process Models:
    Rainfall/Runoff ........ YES
    RDII ................... NO
    Snowmelt ............... NO
    Groundwater ............ NO
    Flow Routing ........... YES
    Ponding Allowed ........ NO
    Water Quality .......... NO
  Infiltration Method ...... HORTON
  Flow Routing Method ...... DYNWAVE
  Surcharge Method ......... SLOT
  Starting Date ............ 01/01/2024 00:00:00
  Ending Date .............. 01/04/2024 04:00:00
  Antecedent Dry Days ...... 14.0
  Report Time Step ......... 00:01:00
  Wet Time Step ............ 00:01:00
  Dry Time Step ............ 00:01:00
  Routing Time Step ........ 1.00 sec
  Variable Time Step ....... YES
  Maximum Trials ........... 8
  Number of Threads ........ 1
  Head Tolerance ........... 0.001500 m
  
  
  **************************        Volume         Depth
  Runoff Quantity Continuity     hectare-m            mm
  **************************     ---------       -------
  Total Precipitation ......         0.073         7.190
  Evaporation Loss .........         0.010         0.957
  Infiltration Loss ........         0.040         3.975
  Surface Runoff ...........         0.023         2.280
  Final Storage ............         0.000         0.000
  Continuity Error (%) .....        -0.309
  
  
  **************************        Volume        Volume
  Flow Routing Continuity        hectare-m      10^6 ltr
  **************************     ---------     ---------
  Dry Weather Inflow .......         0.000         0.000
  Wet Weather Inflow .......         0.023         0.231
  Groundwater Inflow .......         0.000         0.000
  RDII Inflow ..............         0.000         0.000
  External Inflow ..........         0.000         0.000
  External Outflow .........         0.023         0.232
  Flooding Loss ............         0.000         0.000
  Evaporation Loss .........         0.000         0.000
  Exfiltration Loss ........         0.000         0.000
  Initial Stored Volume ....         0.000         0.000
  Final Stored Volume ......         0.000         0.000
  Continuity Error (%) .....        -0.475
  
  
  *************************
  Highest Continuity Errors
  *************************
  Node R0019718 (-3.06%)
  
  
  ***************************
  Time-Step Critical Elements
  ***************************
  None
  
  
  ********************************
  Highest Flow Instability Indexes
  ********************************
  All links are stable.
  
  
  *********************************
  Most Frequent Nonconverging Nodes
  *********************************
  Convergence obtained at all time steps.
  
  
  *************************
  Routing Time Step Summary
  *************************
  Minimum Time Step           :     0.50 sec
  Average Time Step           :     1.00 sec
  Maximum Time Step           :     1.00 sec
  % of Time in Steady State   :     0.00
  Average Iterations per Step :     2.00
  % of Steps Not Converging   :     0.00
  Time Step Frequencies       :
      1.000 -  0.871 sec      :   100.00 %
      0.871 -  0.758 sec      :     0.00 %
      0.758 -  0.660 sec      :     0.00 %
      0.660 -  0.574 sec      :     0.00 %
      0.574 -  0.500 sec      :     0.00 %
  
  
  ***************************
  Subcatchment Runoff Summary
  ***************************
  
  ------------------------------------------------------------------------------------------------------------------------------
                            Total      Total      Total      Total     Imperv       Perv      Total       Total     Peak  Runoff
                           Precip      Runon       Evap      Infil     Runoff     Runoff     Runoff      Runoff   Runoff   Coeff
  Subcatchment                 mm         mm         mm         mm         mm         mm         mm    10^6 ltr      CMS
  ------------------------------------------------------------------------------------------------------------------------------
  EZG_368                    7.19       0.00       0.95       3.99       2.66       0.00       2.26        0.01     0.02   0.315
  EZG_392                    7.19       0.00       0.95       4.00       2.67       0.00       2.27        0.01     0.02   0.316
  EZG_352                    7.19       0.00       0.96       3.99       2.66       0.00       2.26        0.01     0.03   0.314
  EZG_372                    7.19       0.00       0.94       4.00       2.69       0.00       2.29        0.00     0.01   0.318
  EZG_416                    7.19       0.00       0.95       4.00       2.67       0.00       2.27        0.01     0.02   0.316
  EZG_388                    7.19       0.00       0.95       3.99       2.66       0.00       2.26        0.01     0.02   0.315
  EZG_394                    7.19       0.00       0.95       4.00       2.67       0.00       2.27        0.01     0.02   0.316
  EZG_400                    7.19       0.00       0.94       4.00       2.68       0.00       2.27        0.01     0.02   0.316
  EZG_390                    7.19       0.00       0.95       4.00       2.67       0.00       2.27        0.01     0.02   0.316
  EZG_350                    7.19       0.00       0.95       3.99       2.66       0.00       2.26        0.01     0.02   0.315
  EZG_370                    7.19       0.00       0.95       4.00       2.67       0.00       2.27        0.01     0.02   0.315
  EZG_398                    7.19       0.00       0.93       4.00       2.70       0.00       2.29        0.00     0.01   0.319
  EZG_382                    7.19       0.00       0.93       4.00       2.70       0.00       2.29        0.00     0.01   0.319
  EZG_374                    7.19       0.00       1.15       3.35       3.19       0.00       2.71        0.01     0.02   0.377
  EZG_412                    7.19       0.00       0.93       4.00       2.72       0.00       2.31        0.00     0.00   0.321
  EZG_344                    7.19       0.00       0.94       4.00       2.68       0.00       2.27        0.01     0.02   0.316
  EZG_376                    7.19       0.00       0.94       4.00       2.68       0.00       2.28        0.00     0.01   0.317
  EZG_356                    7.19       0.00       0.96       3.99       2.65       0.00       2.26        0.01     0.03   0.314
  EZG_386                    7.19       0.00       0.96       3.99       2.65       0.00       2.25        0.02     0.04   0.313
  EZG_380                    7.19       0.00       0.95       3.99       2.67       0.00       2.27        0.01     0.02   0.315
  EZG_378                    7.19       0.00       0.95       4.00       2.67       0.00       2.27        0.01     0.02   0.316
  EZG_414                    7.19       0.00       0.93       4.00       2.70       0.00       2.30        0.00     0.01   0.319
  EZG_402                    7.19       0.00       0.95       4.00       2.67       0.00       2.27        0.01     0.02   0.316
  EZG_358                    7.19       0.00       0.96       3.99       2.65       0.00       2.26        0.01     0.03   0.314
  EZG_364                    7.19       0.00       0.96       3.99       2.65       0.00       2.26        0.01     0.03   0.314
  EZG_410                    7.19       0.00       0.94       4.00       2.68       0.00       2.28        0.00     0.01   0.317
  EZG_366                    7.19       0.00       0.94       4.00       2.68       0.00       2.28        0.01     0.01   0.317
  EZG_18259                  7.19       0.00       0.94       4.00       2.68       0.00       2.28        0.01     0.01   0.317
  EZG_18258                  7.19       0.00       0.93       4.00       2.71       0.00       2.30        0.00     0.00   0.320
  EZG_346                    7.19       0.00       0.93       4.06       2.62       0.00       2.22        0.01     0.02   0.309
  EZG_348                    7.19       0.00       0.92       4.06       2.63       0.00       2.23        0.00     0.01   0.310
  
  
  ******************
  Node Depth Summary
  ******************
  
  ---------------------------------------------------------------------------------
                                 Average  Maximum  Maximum  Time of Max    Reported
                                   Depth    Depth      HGL   Occurrence   Max Depth
  Node                 Type       Meters   Meters   Meters  days hr:min      Meters
  ---------------------------------------------------------------------------------
  R0019466             JUNCTION     0.00     0.18    69.63     0  02:10        0.18
  R0019468             JUNCTION     0.00     0.19    69.50     0  02:11        0.18
  R0019831             JUNCTION     0.00     0.10    69.27     0  02:10        0.10
  R0019825             JUNCTION     0.00     0.16    69.00     0  02:10        0.16
  R0019843             JUNCTION     0.00     0.23    67.86     0  02:13        0.23
  R0019368             JUNCTION     0.00     0.33    67.12     0  02:14        0.33
  R0019369             JUNCTION     0.00     0.24    66.83     0  02:14        0.24
  R0019370             JUNCTION     0.00     0.21    66.11     0  02:14        0.21
  R0019345             JUNCTION     0.00     0.17    70.07     0  02:11        0.17
  R0019346             JUNCTION     0.00     0.15    69.95     0  02:11        0.15
  R0043600             JUNCTION     0.00     0.17    69.84     0  02:12        0.17
  R0019203             JUNCTION     0.00     0.19    69.73     0  02:12        0.19
  R0043594             JUNCTION     0.00     0.14    69.87     0  02:10        0.14
  R0021458             JUNCTION     0.00     0.18    69.83     0  02:11        0.18
  R0019202             JUNCTION     0.00     0.16    69.74     0  02:12        0.16
  R0019373             JUNCTION     0.00     0.10    69.77     0  02:10        0.10
  R0019254             JUNCTION     0.00     0.16    70.20     0  02:10        0.16
  R0019716             JUNCTION     0.00     0.21    69.22     0  02:13        0.20
  R0019946             JUNCTION     0.00     0.32    68.94     0  02:13        0.32
  R0013935             JUNCTION     0.00     0.10    68.93     0  02:10        0.09
  R0019939             JUNCTION     0.00     0.15    68.72     0  02:10        0.14
  R0019944             JUNCTION     0.00     0.19    68.47     0  02:14        0.19
  R0043703             JUNCTION     0.00     0.23    68.83     0  02:13        0.23
  R0019945             JUNCTION     0.00     0.24    68.64     0  02:14        0.24
  R0039621             JUNCTION     0.00     0.05    69.62     0  02:11        0.05
  R0019838             JUNCTION     0.00     0.14    69.60     0  02:10        0.14
  R0039606             JUNCTION     0.00     0.16    69.75     0  02:12        0.16
  R0019204             JUNCTION     0.00     0.00    69.91     0  00:00        0.00
  R0019205             JUNCTION     0.00     0.00    69.62     0  00:00        0.00
  R0019849             JUNCTION     0.00     0.17    68.69     0  02:11        0.17
  R0019371             JUNCTION     0.00     0.00    70.41     0  00:00        0.00
  R0019718             JUNCTION     0.00     0.26    69.68     0  02:13        0.26
  R0021442             JUNCTION     0.00     0.21    70.26     0  02:11        0.21
  R0019247             JUNCTION     0.00     0.20    70.08     0  02:11        0.20
  R0019719             JUNCTION     0.00     0.16    69.84     0  02:12        0.16
  R0019767             JUNCTION     0.00     0.22    64.95     0  02:14        0.22
  R0019768             JUNCTION     0.00     0.19    63.96     0  02:15        0.19
  R0021453             JUNCTION     0.00     0.07    70.02     0  02:10        0.07
  R0019839             JUNCTION     0.00     0.14    69.53     0  02:10        0.13
  R0019717             JUNCTION     0.00     0.21    69.55     0  02:13        0.21
  R0019252             JUNCTION     0.00     0.12    70.31     0  02:10        0.12
  R0019721             JUNCTION     0.00     0.13    70.00     0  02:10        0.13
  R0019942             JUNCTION     0.00     0.12    68.77     0  02:11        0.12
  R0019206             JUNCTION     0.00     0.00    69.07     0  00:00        0.00
  R0019840             JUNCTION     0.00     0.12    69.09     0  02:11        0.12
  R0043702             JUNCTION     0.00     0.18    68.88     0  02:11        0.18
  R0019723             JUNCTION     0.00     0.10    70.18     0  02:10        0.10
  R0019724             JUNCTION     0.00     0.06    70.22     0  02:10        0.06
  R0021433             JUNCTION     0.00     0.11    70.50     0  02:10        0.11
  R0021435             JUNCTION     0.00     0.15    70.33     0  02:10        0.15
  R0019769             OUTFALL      0.00     0.19    63.57     0  02:15        0.19
  
  
  *******************
  Node Inflow Summary
  *******************
  
  -------------------------------------------------------------------------------------------------
                                  Maximum  Maximum                  Lateral       Total        Flow
                                  Lateral    Total  Time of Max      Inflow      Inflow     Balance
                                   Inflow   Inflow   Occurrence      Volume      Volume       Error
  Node                 Type           CMS      CMS  days hr:min    10^6 ltr    10^6 ltr     Percent
  -------------------------------------------------------------------------------------------------
  R0019466             JUNCTION     0.023    0.040     0  02:10     0.00936      0.0175      -0.076
  R0019468             JUNCTION     0.015    0.049     0  02:10     0.00545       0.023       0.074
  R0019831             JUNCTION     0.019    0.019     0  02:10     0.00735     0.00735      -0.342
  R0019825             JUNCTION     0.019    0.036     0  02:10     0.00737      0.0147      -0.052
  R0019843             JUNCTION     0.000    0.339     0  02:13           0       0.232      -0.052
  R0019368             JUNCTION     0.000    0.338     0  02:13           0       0.232      -0.001
  R0019369             JUNCTION     0.000    0.336     0  02:14           0       0.232       0.004
  R0019370             JUNCTION     0.000    0.337     0  02:14           0       0.232       0.013
  R0019345             JUNCTION     0.000    0.031     0  02:10           0      0.0144       0.353
  R0019346             JUNCTION     0.003    0.051     0  02:11    0.000922      0.0242       0.139
  R0043600             JUNCTION     0.000    0.053     0  02:11           0       0.028       0.418
  R0019203             JUNCTION     0.006    0.108     0  02:12     0.00203      0.0625      -0.020
  R0043594             JUNCTION     0.030    0.044     0  02:10      0.0133       0.019      -0.946
  R0021458             JUNCTION     0.025    0.059     0  02:10      0.0104      0.0296      -0.045
  R0019202             JUNCTION     0.009    0.055     0  02:12     0.00309      0.0327      -0.072
  R0019373             JUNCTION     0.020    0.020     0  02:10     0.00813     0.00813      -0.164
  R0019254             JUNCTION     0.017    0.034     0  02:10     0.00662      0.0144      -0.169
  R0019716             JUNCTION     0.025    0.201     0  02:13      0.0103        0.13      -0.120
  R0019946             JUNCTION     0.000    0.199     0  02:13           0        0.13       0.147
  R0013935             JUNCTION     0.017    0.017     0  02:10      0.0063      0.0063      -0.396
  R0019939             JUNCTION     0.007    0.022     0  02:10     0.00227      0.0086      -0.026
  R0019944             JUNCTION     0.016    0.247     0  02:14     0.00586       0.166      -0.006
  R0043703             JUNCTION     0.019    0.209     0  02:13     0.00718       0.137      -0.015
  R0019945             JUNCTION     0.000    0.242     0  02:13           0        0.16       0.011
  R0039621             JUNCTION     0.000    0.003     0  02:10           0    0.000199       4.018
  R0019838             JUNCTION     0.031    0.031     0  02:10      0.0145      0.0146      -0.068
  R0039606             JUNCTION     0.000    0.053     0  02:11           0      0.0297       0.428
  R0019204             JUNCTION     0.000    0.000     0  00:00           0           0       0.000 ltr
  R0019205             JUNCTION     0.000    0.000     0  00:00           0           0       0.000 ltr
  R0019849             JUNCTION     0.000    0.052     0  02:10           0      0.0233       0.067
  R0019371             JUNCTION     0.000    0.000     0  00:00           0           0       0.000 ltr
  R0019718             JUNCTION     0.022    0.120     0  02:12     0.00882      0.0714      -2.969
  R0021442             JUNCTION     0.023    0.049     0  02:10      0.0103      0.0233      -0.065
  R0019247             JUNCTION     0.013    0.055     0  02:10     0.00454      0.0279      -0.355
  R0019719             JUNCTION     0.013    0.058     0  02:11     0.00478      0.0289      -0.068
  R0019767             JUNCTION     0.000    0.336     0  02:14           0       0.232      -0.001
  R0019768             JUNCTION     0.000    0.336     0  02:14           0       0.232       0.049
  R0021453             JUNCTION     0.016    0.016     0  02:10     0.00575     0.00575       0.831
  R0019839             JUNCTION     0.031    0.053     0  02:10      0.0143      0.0287      -0.142
  R0019717             JUNCTION     0.037    0.188     0  02:13       0.018        0.12       0.981
  R0019252             JUNCTION     0.020    0.020     0  02:10     0.00777     0.00777      -0.372
  R0019721             JUNCTION     0.006    0.023     0  02:10       0.002     0.00885       0.099
  R0019942             JUNCTION     0.000    0.033     0  02:10           0      0.0148       0.221
  R0019206             JUNCTION     0.000    0.000     0  00:00           0           0       0.000 ltr
  R0019840             JUNCTION     0.000    0.096     0  02:11           0      0.0517       0.087
  R0043702             JUNCTION     0.031    0.119     0  02:11      0.0143       0.066      -0.030
  R0019723             JUNCTION     0.015    0.019     0  02:10     0.00541     0.00682      -0.485
  R0019724             JUNCTION     0.005    0.005     0  02:10     0.00141     0.00141      -0.551
  R0021433             JUNCTION     0.020    0.020     0  02:10     0.00809     0.00809      -0.380
  R0021435             JUNCTION     0.014    0.032     0  02:10     0.00496      0.0131       0.183
  R0019769             OUTFALL      0.000    0.336     0  02:15           0       0.232       0.000
  
  
  **********************
  Node Surcharge Summary
  **********************
  
  No nodes were surcharged.
  
  
  *********************
  Node Flooding Summary
  *********************
  
  No nodes were flooded.
  
  
  ***********************
  Outfall Loading Summary
  ***********************
  
  -----------------------------------------------------------
                         Flow       Avg       Max       Total
                         Freq      Flow      Flow      Volume
  Outfall Node           Pcnt       CMS       CMS    10^6 ltr
  -----------------------------------------------------------
  R0019769               3.71     0.023     0.336       0.232
  -----------------------------------------------------------
  System                 3.71     0.023     0.336       0.232
  
  
  ********************
  Link Flow Summary
  ********************
  
  -----------------------------------------------------------------------------
                                 Maximum  Time of Max   Maximum    Max/    Max/
                                  |Flow|   Occurrence   |Veloc|    Full    Full
  Link                 Type          CMS  days hr:min     m/sec    Flow   Depth
  -----------------------------------------------------------------------------
  H0014431             CONDUIT     0.038     0  02:10      0.84    0.70    0.61
  H0014433             CONDUIT     0.018     0  02:10      0.63    0.23    0.43
  H0014352             CONDUIT     0.338     0  02:13      2.03    0.14    0.31
  H0014373             CONDUIT     0.337     0  02:14      2.68    0.16    0.25
  H0017981             CONDUIT     0.030     0  02:11      0.84    0.84    0.50
  H0017755             CONDUIT     0.052     0  02:12      1.04    0.42    0.42
  H0017791             CONDUIT     0.037     0  02:10      0.51    0.05    0.18
  H0017357             CONDUIT     0.000     0  00:00      0.00    0.00    0.17
  H0018216             CONDUIT     0.031     0  02:10      0.80    0.57    0.55
  H0016792             CONDUIT     0.199     0  02:13      1.29    0.11    0.29
  H0019507             CONDUIT     0.016     0  02:10      0.62    0.22    0.40
  H0019998             CONDUIT     0.247     0  02:14      2.22    0.10    0.23
  H0019576             CONDUIT     0.210     0  02:14      1.62    0.14    0.26
  H0020087             CONDUIT     0.003     0  02:10      0.14    0.01    0.19
  H0020211             CONDUIT     0.202     0  02:13      1.24    0.50    0.30
  H0018982             CONDUIT     0.053     0  02:11      0.67    0.09    0.19
  H0018753             CONDUIT     0.018     0  02:10      0.55    0.26    0.48
  H0018845             CONDUIT     0.000     0  00:00      0.00    0.00    0.00
  H0018863             CONDUIT     0.020     0  02:10      0.56    0.46    0.52
  H0019156             CONDUIT     0.000     0  00:00      0.00    0.00    0.00
  H0018929             CONDUIT     0.109     0  02:12      0.91    0.09    0.25
  H0018440             CONDUIT     0.047     0  02:11      0.93    0.84    0.67
  H0018456             CONDUIT     0.051     0  02:11      1.11    0.31    0.40
  H0018968             CONDUIT     0.336     0  02:14      3.05    0.13    0.23
  H0022036             CONDUIT     0.015     0  02:10      0.52    0.01    0.10
  H0021806             CONDUIT     0.053     0  02:11      0.96    0.47    0.46
  H0022111             CONDUIT     0.025     0  02:10      0.57    0.18    0.28
  H0021440             CONDUIT     0.188     0  02:13      1.68    0.12    0.23
  H0021704             CONDUIT     0.116     0  02:13      0.93    0.22    0.25
  H0020521             CONDUIT     0.018     0  02:10      0.55    0.36    0.48
  H0020755             CONDUIT     0.020     0  02:10      0.55    0.22    0.35
  H0020530             CONDUIT     0.336     0  02:14      1.93    0.29    0.32
  H0020618             CONDUIT     0.242     0  02:14      2.10    0.15    0.24
  H0021163             CONDUIT     0.033     0  02:10      1.04    0.56    0.47
  H0020497             CONDUIT     0.000     0  00:00      0.00    0.00    0.38
  H0024325             CONDUIT     0.052     0  02:10      1.33    0.16    0.25
  H0023585             CONDUIT     0.119     0  02:11      1.89    0.27    0.36
  H0024098             CONDUIT     0.051     0  02:11      1.28    0.60    0.61
  H0024235             CONDUIT     0.057     0  02:12      1.04    0.23    0.32
  H0024282             CONDUIT     0.000     0  00:00      0.00    0.00    0.00
  H0024308             CONDUIT     0.336     0  02:15      3.42    0.10    0.21
  H0024498             CONDUIT     0.045     0  02:11      1.06    0.70    0.58
  H0026990             CONDUIT     0.018     0  02:10      0.64    0.13    0.28
  H0041650             CONDUIT     0.054     0  02:12      0.65    0.06    0.20
  H0041011             CONDUIT     0.033     0  02:11      0.98    0.33    0.48
  H0045103             CONDUIT     0.051     0  02:12      0.66    0.06    0.18
  H0045104             CONDUIT     0.336     0  02:14      2.86    0.12    0.24
  H0045105             CONDUIT     0.004     0  02:10      0.32    0.08    0.26
  H0045106             CONDUIT     0.096     0  02:11      1.93    0.13    0.30
  H0045107             CONDUIT     0.019     0  02:10      0.65    0.31    0.44
  H0045108             CONDUIT     0.028     0  02:10      0.64    0.51    0.61
  
  
  ***************************
  Flow Classification Summary
  ***************************
  
  -------------------------------------------------------------------------------------
                      Adjusted    ---------- Fraction of Time in Flow Class ---------- 
                       /Actual         Up    Down  Sub   Sup   Up    Down  Norm  Inlet 
  Conduit               Length    Dry  Dry   Dry   Crit  Crit  Crit  Crit  Ltd   Ctrl  
  -------------------------------------------------------------------------------------
  H0014431                1.00   0.03  0.94  0.00  0.04  0.00  0.00  0.00  0.97  0.00
  H0014433                1.00   0.03  0.00  0.00  0.97  0.00  0.00  0.00  0.97  0.00
  H0014352                1.00   0.03  0.00  0.00  0.96  0.01  0.00  0.00  0.97  0.00
  H0014373                1.00   0.03  0.00  0.00  0.94  0.03  0.00  0.00  0.93  0.00
  H0017981                1.00   0.03  0.00  0.00  0.00  0.00  0.00  0.97  0.00  0.00
  H0017755                1.00   0.03  0.00  0.00  0.00  0.00  0.00  0.97  0.00  0.00
  H0017791                1.00   0.03  0.00  0.00  0.97  0.00  0.00  0.00  0.97  0.00
  H0017357                1.00   0.03  0.97  0.00  0.00  0.00  0.00  0.00  0.00  0.00
  H0018216                1.00   0.03  0.94  0.00  0.04  0.00  0.00  0.00  0.97  0.00
  H0016792                1.00   0.03  0.93  0.00  0.04  0.00  0.00  0.00  0.97  0.00
  H0019507                1.00   0.03  0.00  0.00  0.97  0.00  0.00  0.00  0.97  0.00
  H0019998                1.00   0.03  0.00  0.00  0.94  0.03  0.00  0.00  0.05  0.00
  H0019576                1.00   0.03  0.00  0.00  0.96  0.01  0.00  0.00  0.05  0.00
  H0020087                1.00   0.03  0.96  0.00  0.01  0.00  0.00  0.00  0.97  0.00
  H0020211                1.00   0.03  0.00  0.00  0.97  0.00  0.00  0.00  0.92  0.00
  H0018982                1.00   0.03  0.00  0.00  0.97  0.00  0.00  0.00  0.95  0.00
  H0018753                1.00   0.03  0.00  0.00  0.97  0.00  0.00  0.00  0.97  0.00
  H0018845                1.00   1.00  0.00  0.00  0.00  0.00  0.00  0.00  0.00  0.00
  H0018863                1.00   0.03  0.00  0.00  0.97  0.00  0.00  0.00  0.97  0.00
  H0019156                1.00   1.00  0.00  0.00  0.00  0.00  0.00  0.00  0.00  0.00
  H0018929                1.00   0.03  0.93  0.00  0.04  0.00  0.00  0.00  0.97  0.00
  H0018440                1.00   0.03  0.00  0.00  0.97  0.00  0.00  0.00  0.97  0.00
  H0018456                1.00   0.03  0.00  0.00  0.97  0.00  0.00  0.00  0.97  0.00
  H0018968                1.00   0.03  0.92  0.00  0.02  0.03  0.00  0.00  0.94  0.00
  H0022036                1.00   0.03  0.00  0.00  0.00  0.00  0.00  0.97  0.00  0.00
  H0021806                1.00   0.03  0.93  0.00  0.04  0.00  0.00  0.00  0.97  0.00
  H0022111                1.00   0.03  0.00  0.00  0.97  0.00  0.00  0.00  0.00  0.00
  H0021440                1.00   0.03  0.00  0.00  0.96  0.01  0.00  0.00  0.01  0.00
  H0021704                1.00   0.03  0.00  0.00  0.00  0.00  0.00  0.97  0.00  0.00
  H0020521                1.00   0.03  0.00  0.00  0.97  0.00  0.00  0.00  0.97  0.00
  H0020755                1.00   0.03  0.94  0.00  0.03  0.00  0.00  0.00  0.97  0.00
  H0020530                1.00   0.03  0.00  0.00  0.96  0.01  0.00  0.00  0.00  0.00
  H0020618                1.00   0.03  0.00  0.00  0.95  0.02  0.00  0.00  0.93  0.00
  H0021163                1.00   0.03  0.00  0.00  0.97  0.00  0.00  0.00  0.95  0.00
  H0020497                1.20   0.03  0.97  0.00  0.00  0.00  0.00  0.00  0.00  0.00
  H0024325                1.00   0.03  0.00  0.00  0.96  0.02  0.00  0.00  0.95  0.00
  H0023585                1.00   0.03  0.00  0.00  0.00  0.00  0.00  0.97  0.00  0.00
  H0024098                1.00   0.03  0.94  0.00  0.04  0.00  0.00  0.00  0.97  0.00
  H0024235                1.00   0.03  0.00  0.00  0.00  0.00  0.00  0.97  0.00  0.00
  H0024282                1.00   1.00  0.00  0.00  0.00  0.00  0.00  0.00  0.00  0.00
  H0024308                1.00   0.03  0.00  0.00  0.93  0.05  0.00  0.00  0.01  0.00
  H0024498                1.00   0.03  0.00  0.00  0.00  0.00  0.00  0.97  0.00  0.00
  H0026990                1.00   0.03  0.00  0.00  0.97  0.00  0.00  0.00  0.97  0.00
  H0041650                1.00   0.96  0.01  0.00  0.03  0.00  0.00  0.00  0.97  0.00
  H0041011                1.00   0.03  0.00  0.00  0.97  0.00  0.00  0.00  0.97  0.00
  H0045103                1.00   0.03  0.00  0.00  0.97  0.00  0.00  0.00  0.96  0.00
  H0045104                1.00   0.03  0.00  0.00  0.94  0.04  0.00  0.00  0.05  0.00
  H0045105                1.00   0.03  0.00  0.00  0.97  0.00  0.00  0.00  0.97  0.00
  H0045106                1.00   0.03  0.94  0.00  0.02  0.02  0.00  0.00  0.97  0.00
  H0045107                1.00   0.03  0.00  0.00  0.97  0.00  0.00  0.00  0.97  0.00
  H0045108                1.00   0.03  0.00  0.00  0.97  0.00  0.00  0.00  0.97  0.00
  
  
  *************************
  Conduit Surcharge Summary
  *************************
  
  No conduits were surcharged.
  

  Analysis begun on:  Fri Mar 22 15:54:59 2024
  Analysis ended on:  Fri Mar 22 15:55:08 2024
  Total elapsed time: 00:00:09