
  EPA STORM WATER MANAGEMENT MODEL - VERSION 5.2 (Build 5.2.4)
  PYSWMM TOOLKIT API - VERSION v1.0 (2023-11-27)
  ------------------------------------------------------------

  Gievenbeck_e2_T100D30 
  
  ****************
  Analysis Options
  ****************
  Flow Units ............... CMS
  Process Models:
    Rainfall/Runoff ........ YES
    RDII ................... NO
    Snowmelt ............... NO
    Groundwater ............ NO
    Flow Routing ........... YES
    Ponding Allowed ........ NO
    Water Quality .......... NO
  Infiltration Method ...... HORTON
  Flow Routing Method ...... DYNWAVE
  Surcharge Method ......... SLOT
  Starting Date ............ 01/01/2024 00:00:00
  Ending Date .............. 01/04/2024 04:00:00
  Antecedent Dry Days ...... 14.0
  Report Time Step ......... 00:01:00
  Wet Time Step ............ 00:01:00
  Dry Time Step ............ 00:01:00
  Routing Time Step ........ 1.00 sec
  Variable Time Step ....... YES
  Maximum Trials ........... 8
  Number of Threads ........ 1
  Head Tolerance ........... 0.001500 m
  
  
  **************************        Volume         Depth
  Runoff Quantity Continuity     hectare-m            mm
  **************************     ---------       -------
  Total Precipitation ......         0.378        37.300
  Evaporation Loss .........         0.010         0.970
  Infiltration Loss ........         0.136        13.391
  Surface Runoff ...........         0.233        23.045
  Final Storage ............         0.000         0.000
  Continuity Error (%) .....        -0.284
  
  
  **************************        Volume        Volume
  Flow Routing Continuity        hectare-m      10^6 ltr
  **************************     ---------     ---------
  Dry Weather Inflow .......         0.000         0.000
  Wet Weather Inflow .......         0.233         2.333
  Groundwater Inflow .......         0.000         0.000
  RDII Inflow ..............         0.000         0.000
  External Inflow ..........         0.000         0.000
  External Outflow .........         0.220         2.197
  Flooding Loss ............         0.015         0.146
  Evaporation Loss .........         0.000         0.000
  Exfiltration Loss ........         0.000         0.000
  Initial Stored Volume ....         0.000         0.000
  Final Stored Volume ......         0.000         0.000
  Continuity Error (%) .....        -0.444
  
  
  *************************
  Highest Continuity Errors
  *************************
  Node R0019206 (3.76%)
  Node R0019718 (-1.13%)
  
  
  ***************************
  Time-Step Critical Elements
  ***************************
  None
  
  
  ********************************
  Highest Flow Instability Indexes
  ********************************
  All links are stable.
  
  
  *********************************
  Most Frequent Nonconverging Nodes
  *********************************
  Convergence obtained at all time steps.
  
  
  *************************
  Routing Time Step Summary
  *************************
  Minimum Time Step           :     0.06 sec
  Average Time Step           :     1.00 sec
  Maximum Time Step           :     1.00 sec
  % of Time in Steady State   :     0.00
  Average Iterations per Step :     2.00
  % of Steps Not Converging   :     0.00
  Time Step Frequencies       :
      1.000 -  0.871 sec      :    99.98 %
      0.871 -  0.758 sec      :     0.01 %
      0.758 -  0.660 sec      :     0.00 %
      0.660 -  0.574 sec      :     0.00 %
      0.574 -  0.500 sec      :     0.00 %
  
  
  ***************************
  Subcatchment Runoff Summary
  ***************************
  
  ------------------------------------------------------------------------------------------------------------------------------
                            Total      Total      Total      Total     Imperv       Perv      Total       Total     Peak  Runoff
                           Precip      Runon       Evap      Infil     Runoff     Runoff     Runoff      Runoff   Runoff   Coeff
  Subcatchment                 mm         mm         mm         mm         mm         mm         mm    10^6 ltr      CMS
  ------------------------------------------------------------------------------------------------------------------------------
  EZG_368                   37.30       0.00       0.96      13.50      17.77       7.83      22.93        0.09     0.17   0.615
  EZG_392                   37.30       0.00       0.96      13.33      17.78       8.01      23.12        0.07     0.14   0.620
  EZG_352                   37.30       0.00       0.97      13.78      17.76       7.54      22.64        0.13     0.23   0.607
  EZG_372                   37.30       0.00       0.95      12.80      17.81       8.56      23.69        0.03     0.06   0.635
  EZG_416                   37.30       0.00       0.96      13.26      17.78       8.08      23.20        0.07     0.13   0.622
  EZG_388                   37.30       0.00       0.97      13.58      17.77       7.75      22.85        0.10     0.19   0.613
  EZG_394                   37.30       0.00       0.96      13.22      17.79       8.12      23.23        0.06     0.12   0.623
  EZG_400                   37.30       0.00       0.96      13.17      17.79       8.17      23.29        0.06     0.11   0.624
  EZG_390                   37.30       0.00       0.96      13.31      17.78       8.02      23.14        0.07     0.14   0.620
  EZG_350                   37.30       0.00       0.97      13.58      17.77       7.74      22.85        0.10     0.19   0.613
  EZG_370                   37.30       0.00       0.96      13.40      17.78       7.93      23.04        0.08     0.15   0.618
  EZG_398                   37.30       0.00       0.94      12.64      17.82       8.72      23.86        0.02     0.05   0.640
  EZG_382                   37.30       0.00       0.94      12.59      17.82       8.77      23.92        0.02     0.04   0.641
  EZG_374                   37.30       0.00       1.16      10.68      21.32       7.45      25.57        0.10     0.18   0.686
  EZG_412                   37.30       0.00       0.93      12.30      17.84       9.09      24.26        0.01     0.02   0.650
  EZG_344                   37.30       0.00       0.96      13.16      17.79       8.18      23.30        0.06     0.11   0.625
  EZG_376                   37.30       0.00       0.95      13.01      17.80       8.33      23.46        0.05     0.09   0.629
  EZG_356                   37.30       0.00       0.97      13.85      17.76       7.47      22.57        0.14     0.25   0.605
  EZG_386                   37.30       0.00       0.98      14.04      17.75       7.28      22.37        0.18     0.30   0.600
  EZG_380                   37.30       0.00       0.96      13.46      17.77       7.87      22.98        0.09     0.16   0.616
  EZG_378                   37.30       0.00       0.96      13.37      17.78       7.97      23.08        0.08     0.15   0.619
  EZG_414                   37.30       0.00       0.94      12.59      17.82       8.78      23.93        0.02     0.04   0.641
  EZG_402                   37.30       0.00       0.96      13.33      17.78       8.01      23.12        0.08     0.14   0.620
  EZG_358                   37.30       0.00       0.97      13.84      17.76       7.48      22.58        0.14     0.25   0.605
  EZG_364                   37.30       0.00       0.97      13.84      17.76       7.48      22.58        0.14     0.25   0.605
  EZG_410                   37.30       0.00       0.95      13.04      17.79       8.30      23.42        0.05     0.09   0.628
  EZG_366                   37.30       0.00       0.96      13.13      17.79       8.22      23.34        0.06     0.11   0.626
  EZG_18259                 37.30       0.00       0.96      13.12      17.79       8.22      23.34        0.06     0.11   0.626
  EZG_18258                 37.30       0.00       0.94      12.44      17.83       8.93      24.09        0.01     0.03   0.646
  EZG_346                   37.30       0.00       0.94      13.69      17.42       7.96      22.77        0.08     0.15   0.611
  EZG_348                   37.30       0.00       0.94      13.35      17.44       8.31      23.13        0.05     0.10   0.620
  
  
  ******************
  Node Depth Summary
  ******************
  
  ---------------------------------------------------------------------------------
                                 Average  Maximum  Maximum  Time of Max    Reported
                                   Depth    Depth      HGL   Occurrence   Max Depth
  Node                 Type       Meters   Meters   Meters  days hr:min      Meters
  ---------------------------------------------------------------------------------
  R0019466             JUNCTION     0.01     2.81    72.26     0  02:14        2.81
  R0019468             JUNCTION     0.01     2.73    72.04     0  02:14        2.73
  R0019831             JUNCTION     0.00     1.66    70.83     0  02:12        1.66
  R0019825             JUNCTION     0.00     1.50    70.34     0  02:12        1.50
  R0019843             JUNCTION     0.00     1.86    69.49     0  02:14        1.55
  R0019368             JUNCTION     0.01     1.79    68.58     0  02:14        1.50
  R0019369             JUNCTION     0.00     0.87    67.46     0  02:15        0.87
  R0019370             JUNCTION     0.00     0.67    66.57     0  02:15        0.65
  R0019345             JUNCTION     0.00     1.69    71.59     0  02:15        1.59
  R0019346             JUNCTION     0.00     1.57    71.37     0  02:15        1.48
  R0043600             JUNCTION     0.00     1.55    71.22     0  02:16        1.05
  R0019203             JUNCTION     0.00     1.47    71.01     0  02:16        1.10
  R0043594             JUNCTION     0.00     1.87    71.60     0  02:15        1.35
  R0021458             JUNCTION     0.00     1.86    71.51     0  02:15        1.78
  R0019202             JUNCTION     0.00     1.48    71.06     0  02:16        1.22
  R0019373             JUNCTION     0.00     2.47    72.14     0  02:15        2.46
  R0019254             JUNCTION     0.00     2.13    72.17     0  02:14        2.13
  R0019716             JUNCTION     0.00     1.53    70.54     0  02:16        1.32
  R0019946             JUNCTION     0.01     1.59    70.21     0  02:16        1.43
  R0013935             JUNCTION     0.00     1.62    70.45     0  02:13        1.62
  R0019939             JUNCTION     0.00     1.78    70.35     0  02:14        1.78
  R0019944             JUNCTION     0.00     1.30    69.58     0  02:15        1.29
  R0043703             JUNCTION     0.00     1.32    69.92     0  02:16        1.29
  R0019945             JUNCTION     0.00     1.32    69.72     0  02:15        1.30
  R0039621             JUNCTION     0.00     1.56    71.13     0  02:13        1.56
  R0019838             JUNCTION     0.00     1.80    71.26     0  02:14        1.79
  R0039606             JUNCTION     0.00     1.46    71.05     0  02:16        1.28
  R0019204             JUNCTION     0.00     0.00    69.91     0  00:00        0.00
  R0019205             JUNCTION     0.00     0.00    69.62     0  00:00        0.00
  R0019849             JUNCTION     0.00     1.59    70.11     0  02:15        1.55
  R0019371             JUNCTION     0.00     0.00    70.41     0  00:00        0.00
  R0019718             JUNCTION     0.00     1.63    71.05     0  02:16        1.15
  R0021442             JUNCTION     0.01     2.05    72.10     0  02:12        2.05
  R0019247             JUNCTION     0.00     1.67    71.55     0  02:16        1.44
  R0019719             JUNCTION     0.00     1.35    71.03     0  02:15        1.31
  R0019767             JUNCTION     0.00     0.70    65.43     0  02:15        0.70
  R0019768             JUNCTION     0.00     0.57    64.34     0  02:15        0.57
  R0021453             JUNCTION     0.00     1.69    71.64     0  02:15        1.37
  R0019839             JUNCTION     0.00     1.94    71.33     0  02:14        1.88
  R0019717             JUNCTION     0.00     1.47    70.81     0  02:16        1.22
  R0019252             JUNCTION     0.00     1.94    72.13     0  02:12        1.94
  R0019721             JUNCTION     0.00     1.70    71.57     0  02:15        1.57
  R0019942             JUNCTION     0.00     1.50    70.15     0  02:15        1.48
  R0019206             JUNCTION     0.00     0.14    69.21     0  02:15        0.09
  R0019840             JUNCTION     0.00     2.06    71.03     0  02:14        2.03
  R0043702             JUNCTION     0.00     2.24    70.94     0  02:14        2.22
  R0019723             JUNCTION     0.00     1.65    71.73     0  02:15        1.52
  R0019724             JUNCTION     0.00     1.60    71.76     0  02:15        1.44
  R0021433             JUNCTION     0.01     2.15    72.54     0  02:12        2.15
  R0021435             JUNCTION     0.01     2.11    72.29     0  02:12        2.11
  R0019769             OUTFALL      0.00     0.57    63.95     0  02:15        0.57
  
  
  *******************
  Node Inflow Summary
  *******************
  
  -------------------------------------------------------------------------------------------------
                                  Maximum  Maximum                  Lateral       Total        Flow
                                  Lateral    Total  Time of Max      Inflow      Inflow     Balance
                                   Inflow   Inflow   Occurrence      Volume      Volume       Error
  Node                 Type           CMS      CMS  days hr:min    10^6 ltr    10^6 ltr     Percent
  -------------------------------------------------------------------------------------------------
  R0019466             JUNCTION     0.170    0.170     0  02:15      0.0948       0.124       0.091
  R0019468             JUNCTION     0.106    0.180     0  02:15      0.0559       0.161      -0.084
  R0019831             JUNCTION     0.138    0.138     0  02:15      0.0749      0.0749       0.108
  R0019825             JUNCTION     0.139    0.239     0  02:15      0.0751       0.146       0.124
  R0019843             JUNCTION     0.000    2.588     0  02:14           0         2.2      -0.079
  R0019368             JUNCTION     0.000    2.488     0  02:15           0         2.2      -0.036
  R0019369             JUNCTION     0.000    2.489     0  02:15           0         2.2      -0.022
  R0019370             JUNCTION     0.000    2.505     0  02:15           0         2.2      -0.002
  R0019345             JUNCTION     0.000    0.162     0  02:13           0       0.127      -0.010
  R0019346             JUNCTION     0.022    0.315     0  02:14     0.00968       0.227       0.032
  R0043600             JUNCTION     0.000    0.223     0  02:14           0       0.216      -0.127
  R0019203             JUNCTION     0.044    0.919     0  02:16      0.0211       0.641      -0.085
  R0043594             JUNCTION     0.232    0.536     0  02:15       0.134       0.203      -0.620
  R0021458             JUNCTION     0.187    0.513     0  02:15       0.105       0.307      -0.125
  R0019202             JUNCTION     0.065    0.697     0  02:16      0.0321       0.404      -0.277
  R0019373             JUNCTION     0.151    0.228     0  02:14      0.0826         0.1       0.746
  R0019254             JUNCTION     0.126    0.175     0  02:12      0.0676       0.127       0.028
  R0019716             JUNCTION     0.185    1.589     0  02:16       0.104         1.3      -0.038
  R0019946             JUNCTION     0.000    1.571     0  02:16           0         1.3       0.002
  R0013935             JUNCTION     0.121    0.121     0  02:15      0.0644      0.0644       0.134
  R0019939             JUNCTION     0.049    0.129     0  02:13      0.0236      0.0821      -0.126
  R0019944             JUNCTION     0.113    1.877     0  02:16        0.06        1.62       0.014
  R0043703             JUNCTION     0.135    1.669     0  02:16      0.0732        1.37      -0.028
  R0019945             JUNCTION     0.000    1.840     0  02:16           0        1.56      -0.023
  R0039621             JUNCTION     0.000    0.222     0  02:15           0      0.0223      -0.957
  R0019838             JUNCTION     0.248    0.252     0  02:13       0.145       0.149      -0.094
  R0039606             JUNCTION     0.000    0.526     0  02:16           0       0.305       0.135
  R0019204             JUNCTION     0.000    0.000     0  00:00           0           0       0.000 ltr
  R0019205             JUNCTION     0.000    0.000     0  00:00           0           0       0.000 ltr
  R0019849             JUNCTION     0.000    0.223     0  02:13           0       0.194       0.022
  R0019371             JUNCTION     0.000    0.000     0  00:00           0           0       0.000 ltr
  R0019718             JUNCTION     0.162    0.984     0  02:16      0.0895       0.731      -1.113
  R0021442             JUNCTION     0.180    0.252     0  02:15      0.0969       0.193       0.044
  R0019247             JUNCTION     0.091    0.225     0  02:14      0.0468       0.217       0.110
  R0019719             JUNCTION     0.095    0.397     0  02:14      0.0492       0.276       0.710
  R0019767             JUNCTION     0.000    2.491     0  02:15           0         2.2      -0.006
  R0019768             JUNCTION     0.000    2.485     0  02:15           0         2.2       0.011
  R0021453             JUNCTION     0.111    0.498     0  02:15      0.0589      0.0631      -1.435
  R0019839             JUNCTION     0.246    0.400     0  02:14       0.143        0.27       0.011
  R0019717             JUNCTION     0.300    1.546     0  02:16       0.179        1.19       0.103
  R0019252             JUNCTION     0.145    0.145     0  02:15      0.0791      0.0791      -0.008
  R0019721             JUNCTION     0.044    0.164     0  02:14      0.0208      0.0912       0.077
  R0019942             JUNCTION     0.000    0.131     0  02:12           0       0.111      -0.331
  R0019206             JUNCTION     0.000    0.083     0  02:14           0     0.00167       3.904
  R0019840             JUNCTION     0.000    0.537     0  02:14           0        0.43      -0.038
  R0043702             JUNCTION     0.246    0.719     0  02:14       0.143       0.574       0.436
  R0019723             JUNCTION     0.106    0.129     0  02:14      0.0555      0.0705      -0.189
  R0019724             JUNCTION     0.032    0.051     0  02:13      0.0147       0.015      -0.498
  R0021433             JUNCTION     0.151    0.151     0  02:15      0.0829      0.0829      -0.032
  R0021435             JUNCTION     0.098    0.170     0  02:15      0.0515       0.121      -0.185
  R0019769             OUTFALL      0.000    2.491     0  02:15           0         2.2       0.000
  
  
  **********************
  Node Surcharge Summary
  **********************
  
  Surcharging occurs when water rises above the top of the highest conduit.
  ---------------------------------------------------------------------
                                               Max. Height   Min. Depth
                                   Hours       Above Crown    Below Rim
  Node                 Type      Surcharged         Meters       Meters
  ---------------------------------------------------------------------
  R0019466             JUNCTION        0.29          2.510        0.000
  R0019468             JUNCTION        0.28          2.430        0.000
  R0019831             JUNCTION        0.19          1.360        0.000
  R0019825             JUNCTION        0.24          1.200        0.000
  R0019843             JUNCTION        0.11          0.962        1.658
  R0019368             JUNCTION        0.14          0.892        0.158
  R0019345             JUNCTION        0.18          1.395        0.355
  R0019346             JUNCTION        0.14          1.171        0.569
  R0043600             JUNCTION        0.16          1.146        1.434
  R0019203             JUNCTION        0.05          0.569        1.411
  R0043594             JUNCTION        0.03          0.937        0.883
  R0021458             JUNCTION        0.03          0.962        1.118
  R0019202             JUNCTION        0.04          0.581        1.419
  R0019373             JUNCTION        0.19          2.171        0.329
  R0019254             JUNCTION        0.21          1.830        0.000
  R0019716             JUNCTION        0.08          0.634        1.086
  R0019946             JUNCTION        0.12          0.691        0.829
  R0013935             JUNCTION        0.20          1.320        0.000
  R0019939             JUNCTION        0.28          1.479        0.141
  R0019944             JUNCTION        0.06          0.401        1.129
  R0043703             JUNCTION        0.06          0.415        0.905
  R0019945             JUNCTION        0.06          0.415        1.045
  R0039621             JUNCTION        0.08          1.060        0.000
  R0019838             JUNCTION        0.09          1.300        0.000
  R0039606             JUNCTION        0.04          0.563        1.437
  R0019849             JUNCTION        0.30          1.287        0.643
  R0019718             JUNCTION        0.06          0.732        1.268
  R0021442             JUNCTION        0.31          1.750        0.000
  R0019247             JUNCTION        0.19          1.275        0.585
  R0019719             JUNCTION        0.11          0.851        0.949
  R0021453             JUNCTION        0.01          0.794        0.706
  R0019839             JUNCTION        0.09          1.437        0.213
  R0019717             JUNCTION        0.05          0.533        1.317
  R0019252             JUNCTION        0.18          1.640        0.000
  R0019721             JUNCTION        0.13          1.303        0.257
  R0019942             JUNCTION        0.25          1.203        0.447
  R0019840             JUNCTION        0.12          1.560        1.010
  R0043702             JUNCTION        0.14          1.736        1.174
  R0019723             JUNCTION        0.10          1.252        0.068
  R0019724             JUNCTION        0.10          1.296        0.154
  R0021433             JUNCTION        0.23          1.850        0.000
  R0021435             JUNCTION        0.28          1.810        0.000
  
  
  *********************
  Node Flooding Summary
  *********************
  
  Flooding refers to all water that overflows a node, whether it ponds or not.
  --------------------------------------------------------------------------
                                                             Total   Maximum
                                 Maximum   Time of Max       Flood    Ponded
                        Hours       Rate    Occurrence      Volume     Depth
  Node                 Flooded       CMS   days hr:min    10^6 ltr    Meters
  --------------------------------------------------------------------------
  R0019466                0.01     0.029      0  02:15       0.001     0.000
  R0019468                0.01     0.020      0  02:15       0.001     0.000
  R0019831                0.05     0.037      0  02:15       0.004     0.000
  R0019825                0.11     0.169      0  02:15       0.035     0.000
  R0019254                0.01     0.003      0  02:15       0.000     0.000
  R0013935                0.05     0.066      0  02:15       0.006     0.000
  R0039621                0.04     0.222      0  02:15       0.018     0.000
  R0019838                0.01     0.015      0  02:14       0.000     0.000
  R0021442                0.10     0.122      0  02:15       0.023     0.000
  R0019252                0.08     0.136      0  02:15       0.020     0.000
  R0021433                0.09     0.079      0  02:15       0.013     0.000
  R0021435                0.12     0.098      0  02:15       0.025     0.000
  
  
  ***********************
  Outfall Loading Summary
  ***********************
  
  -----------------------------------------------------------
                         Flow       Avg       Max       Total
                         Freq      Flow      Flow      Volume
  Outfall Node           Pcnt       CMS       CMS    10^6 ltr
  -----------------------------------------------------------
  R0019769               4.17     0.196     2.491       2.197
  -----------------------------------------------------------
  System                 4.17     0.196     2.491       2.197
  
  
  ********************
  Link Flow Summary
  ********************
  
  -----------------------------------------------------------------------------
                                 Maximum  Time of Max   Maximum    Max/    Max/
                                  |Flow|   Occurrence   |Veloc|    Full    Full
  Link                 Type          CMS  days hr:min     m/sec    Flow   Depth
  -----------------------------------------------------------------------------
  H0014431             CONDUIT     0.088     0  02:12      1.25    1.64    1.00
  H0014433             CONDUIT     0.100     0  02:15      1.42    1.28    1.00
  H0014352             CONDUIT     2.488     0  02:15      3.91    1.02    1.00
  H0014373             CONDUIT     2.505     0  02:15      4.38    1.16    0.85
  H0017981             CONDUIT     0.164     0  02:13      2.32    4.64    1.00
  H0017755             CONDUIT     0.233     0  02:15      1.86    1.89    1.00
  H0017791             CONDUIT     0.386     0  02:16      0.76    0.56    1.00
  H0017357             CONDUIT     0.217     0  02:14      3.07    3.47    1.00
  H0018216             CONDUIT     0.162     0  02:13      2.29    2.95    1.00
  H0016792             CONDUIT     1.571     0  02:16      2.47    0.90    1.00
  H0019507             CONDUIT     0.088     0  02:13      1.25    1.23    1.00
  H0019998             CONDUIT     1.887     0  02:14      3.46    0.75    1.00
  H0019576             CONDUIT     1.669     0  02:16      2.63    1.12    1.00
  H0020087             CONDUIT     0.222     0  02:15      1.13    0.97    1.00
  H0020211             CONDUIT     1.588     0  02:16      2.50    3.96    1.00
  H0018982             CONDUIT     0.526     0  02:16      0.89    0.85    1.00
  H0018753             CONDUIT     0.082     0  02:14      1.16    1.16    1.00
  H0018845             CONDUIT     0.000     0  00:00      0.00    0.00    0.00
  H0018863             CONDUIT     0.125     0  02:13      1.76    2.93    1.00
  H0019156             CONDUIT     0.000     0  00:00      0.00    0.00    0.00
  H0018929             CONDUIT     0.884     0  02:16      1.44    0.77    1.00
  H0018440             CONDUIT     0.159     0  02:12      2.25    2.85    1.00
  H0018456             CONDUIT     0.308     0  02:14      2.45    1.87    1.00
  H0018968             CONDUIT     2.485     0  02:15      5.16    0.95    0.71
  H0022036             CONDUIT     0.415     0  02:15      0.65    0.32    1.00
  H0021806             CONDUIT     0.223     0  02:14      1.77    1.97    1.00
  H0022111             CONDUIT     0.180     0  02:13      0.92    1.29    1.00
  H0021440             CONDUIT     1.471     0  02:16      2.51    0.95    1.00
  H0021704             CONDUIT     1.002     0  02:16      1.68    1.91    1.00
  H0020521             CONDUIT     0.084     0  02:12      1.18    1.69    1.00
  H0020755             CONDUIT     0.161     0  02:15      1.28    1.77    1.00
  H0020530             CONDUIT     2.489     0  02:15      3.91    2.13    1.00
  H0020618             CONDUIT     1.812     0  02:16      3.35    1.12    1.00
  H0021163             CONDUIT     0.131     0  02:12      1.85    2.18    1.00
  H0020497             CONDUIT     0.083     0  02:14      1.17    0.18    1.00
  H0024325             CONDUIT     0.386     0  02:14      1.96    1.15    1.00
  H0023585             CONDUIT     0.713     0  02:14      3.63    1.64    1.00
  H0024098             CONDUIT     0.219     0  02:13      3.10    2.56    1.00
  H0024235             CONDUIT     0.392     0  02:14      1.99    1.60    1.00
  H0024282             CONDUIT     0.000     0  00:00      0.00    0.00    0.24
  H0024308             CONDUIT     2.491     0  02:15      5.86    0.73    0.63
  H0024498             CONDUIT     0.170     0  02:15      2.40    2.63    1.00
  H0026990             CONDUIT     0.122     0  02:14      0.97    0.92    1.00
  H0041650             CONDUIT     0.705     0  02:16      1.11    0.82    1.00
  H0041011             CONDUIT     0.118     0  02:12      1.67    1.17    1.00
  H0045103             CONDUIT     0.495     0  02:16      0.92    0.62    1.00
  H0045104             CONDUIT     2.491     0  02:15      4.84    0.88    0.76
  H0045105             CONDUIT     0.034     0  02:16      0.48    0.59    1.00
  H0045106             CONDUIT     0.500     0  02:14      2.54    0.67    1.00
  H0045107             CONDUIT     0.072     0  02:17      1.01    1.18    1.00
  H0045108             CONDUIT     0.089     0  02:19      1.26    1.60    1.00
  
  
  ***************************
  Flow Classification Summary
  ***************************
  
  -------------------------------------------------------------------------------------
                      Adjusted    ---------- Fraction of Time in Flow Class ---------- 
                       /Actual         Up    Down  Sub   Sup   Up    Down  Norm  Inlet 
  Conduit               Length    Dry  Dry   Dry   Crit  Crit  Crit  Crit  Ltd   Ctrl  
  -------------------------------------------------------------------------------------
  H0014431                1.00   0.03  0.00  0.00  0.97  0.00  0.00  0.00  0.97  0.00
  H0014433                1.00   0.03  0.00  0.00  0.97  0.00  0.00  0.00  0.97  0.00
  H0014352                1.00   0.03  0.00  0.00  0.95  0.02  0.00  0.00  0.97  0.00
  H0014373                1.00   0.03  0.00  0.00  0.94  0.04  0.00  0.00  0.92  0.00
  H0017981                1.00   0.03  0.00  0.00  0.00  0.00  0.00  0.97  0.00  0.00
  H0017755                1.00   0.03  0.00  0.00  0.00  0.00  0.00  0.97  0.00  0.00
  H0017791                1.00   0.03  0.00  0.00  0.97  0.00  0.00  0.00  0.97  0.00
  H0017357                1.00   0.03  0.97  0.00  0.00  0.00  0.00  0.00  0.97  0.00
  H0018216                1.00   0.03  0.93  0.00  0.04  0.00  0.00  0.00  0.97  0.00
  H0016792                1.00   0.03  0.92  0.00  0.05  0.00  0.00  0.00  0.97  0.00
  H0019507                1.00   0.03  0.00  0.00  0.97  0.00  0.00  0.00  0.97  0.00
  H0019998                1.00   0.03  0.00  0.00  0.94  0.03  0.00  0.00  0.05  0.00
  H0019576                1.00   0.03  0.00  0.00  0.96  0.01  0.00  0.00  0.05  0.00
  H0020087                1.00   0.03  0.96  0.00  0.01  0.00  0.00  0.00  0.97  0.00
  H0020211                1.00   0.03  0.00  0.00  0.97  0.00  0.00  0.00  0.92  0.00
  H0018982                1.00   0.03  0.00  0.00  0.97  0.00  0.00  0.00  0.94  0.00
  H0018753                1.00   0.03  0.00  0.00  0.97  0.00  0.00  0.00  0.97  0.00
  H0018845                1.00   1.00  0.00  0.00  0.00  0.00  0.00  0.00  0.00  0.00
  H0018863                1.00   0.03  0.00  0.00  0.97  0.00  0.00  0.00  0.97  0.00
  H0019156                1.00   1.00  0.00  0.00  0.00  0.00  0.00  0.00  0.00  0.00
  H0018929                1.00   0.03  0.93  0.00  0.04  0.00  0.00  0.00  0.97  0.00
  H0018440                1.00   0.03  0.00  0.00  0.97  0.00  0.00  0.00  0.97  0.00
  H0018456                1.00   0.03  0.00  0.00  0.97  0.00  0.00  0.00  0.97  0.00
  H0018968                1.00   0.03  0.92  0.00  0.01  0.04  0.00  0.00  0.94  0.00
  H0022036                1.00   0.03  0.00  0.00  0.01  0.00  0.00  0.96  0.01  0.00
  H0021806                1.00   0.03  0.93  0.00  0.04  0.00  0.00  0.00  0.96  0.00
  H0022111                1.00   0.03  0.00  0.00  0.97  0.00  0.00  0.00  0.00  0.00
  H0021440                1.00   0.03  0.00  0.00  0.95  0.02  0.00  0.00  0.02  0.00
  H0021704                1.00   0.03  0.00  0.00  0.00  0.00  0.00  0.97  0.00  0.00
  H0020521                1.00   0.03  0.00  0.00  0.97  0.00  0.00  0.00  0.97  0.00
  H0020755                1.00   0.03  0.94  0.00  0.04  0.00  0.00  0.00  0.97  0.00
  H0020530                1.00   0.03  0.00  0.00  0.96  0.02  0.00  0.00  0.00  0.00
  H0020618                1.00   0.03  0.00  0.00  0.95  0.03  0.00  0.00  0.93  0.00
  H0021163                1.00   0.03  0.00  0.00  0.97  0.00  0.00  0.00  0.94  0.00
  H0020497                1.20   0.03  0.97  0.00  0.00  0.00  0.00  0.00  0.97  0.00
  H0024325                1.00   0.03  0.00  0.00  0.95  0.02  0.00  0.00  0.94  0.00
  H0023585                1.00   0.03  0.00  0.00  0.00  0.00  0.00  0.97  0.00  0.00
  H0024098                1.00   0.03  0.93  0.00  0.04  0.00  0.00  0.00  0.97  0.00
  H0024235                1.00   0.03  0.00  0.00  0.00  0.00  0.00  0.97  0.00  0.00
  H0024282                1.00   1.00  0.00  0.00  0.00  0.00  0.00  0.00  0.00  0.00
  H0024308                1.00   0.03  0.00  0.00  0.92  0.05  0.00  0.00  0.01  0.00
  H0024498                1.00   0.03  0.00  0.00  0.00  0.00  0.00  0.97  0.00  0.00
  H0026990                1.00   0.03  0.00  0.00  0.97  0.00  0.00  0.00  0.97  0.00
  H0041650                1.00   0.96  0.01  0.00  0.03  0.00  0.00  0.00  0.96  0.00
  H0041011                1.00   0.03  0.00  0.00  0.97  0.00  0.00  0.00  0.97  0.00
  H0045103                1.00   0.03  0.00  0.00  0.97  0.00  0.00  0.00  0.95  0.00
  H0045104                1.00   0.03  0.00  0.00  0.93  0.04  0.00  0.00  0.05  0.00
  H0045105                1.00   0.03  0.00  0.00  0.97  0.00  0.00  0.00  0.97  0.00
  H0045106                1.00   0.03  0.00  0.00  0.95  0.02  0.00  0.00  0.97  0.00
  H0045107                1.00   0.03  0.00  0.00  0.97  0.00  0.00  0.00  0.97  0.00
  H0045108                1.00   0.03  0.00  0.00  0.97  0.00  0.00  0.00  0.97  0.00
  
  
  *************************
  Conduit Surcharge Summary
  *************************
  
  ----------------------------------------------------------------------------
                                                           Hours        Hours 
                         --------- Hours Full --------   Above Full   Capacity
  Conduit                Both Ends  Upstream  Dnstream   Normal Flow   Limited
  ----------------------------------------------------------------------------
  H0014431                    0.28      0.29      0.28      0.30         0.28
  H0014433                    0.19      0.19      0.24      0.07         0.07
  H0014352                    0.11      0.11      0.14      0.02         0.01
  H0014373                    0.01      0.01      0.01      0.09         0.01
  H0017981                    0.14      0.18      0.14      0.34         0.16
  H0017755                    0.15      0.16      0.15      0.20         0.15
  H0017791                    0.03      0.03      0.03      0.01         0.01
  H0017357                    0.12      0.12      0.19      0.12         0.01
  H0018216                    0.18      0.21      0.18      0.25         0.19
  H0016792                    0.08      0.08      0.12      0.01         0.01
  H0019507                    0.20      0.20      0.28      0.03         0.02
  H0019998                    0.06      0.06      0.11      0.01         0.01
  H0019576                    0.06      0.06      0.06      0.08         0.03
  H0020087                    0.08      0.08      0.09      0.01         0.01
  H0020211                    0.06      0.12      0.06      0.28         0.08
  H0018982                    0.03      0.03      0.04      0.01         0.01
  H0018753                    0.19      0.19      0.29      0.01         0.01
  H0018863                    0.28      0.28      0.30      0.18         0.17
  H0018929                    0.05      0.05      0.06      0.01         0.01
  H0018440                    0.24      0.31      0.24      0.36         0.29
  H0018456                    0.13      0.14      0.13      0.16         0.14
  H0022036                    0.01      0.01      0.03      0.01         0.01
  H0021806                    0.16      0.19      0.16      0.22         0.18
  H0022111                    0.09      0.09      0.09      0.04         0.03
  H0021440                    0.05      0.05      0.08      0.01         0.01
  H0021704                    0.05      0.06      0.05      0.16         0.04
  H0020521                    0.18      0.18      0.21      0.10         0.09
  H0020755                    0.13      0.13      0.14      0.07         0.07
  H0020530                    0.01      0.14      0.01      0.19         0.14
  H0020618                    0.06      0.06      0.06      0.09         0.05
  H0021163                    0.24      0.24      0.25      0.24         0.22
  H0020497                    0.01      0.01     73.76      0.01         0.01
  H0024325                    0.09      0.09      0.12      0.01         0.01
  H0023585                    0.13      0.14      0.13      0.15         0.13
  H0024098                    0.29      0.30      0.36      0.27         0.25
  H0024235                    0.10      0.11      0.11      0.10         0.09
  H0024498                    0.13      0.28      0.13      0.32         0.23
  H0026990                    0.10      0.10      0.13      0.01         0.01
  H0041650                    0.04      0.04      0.05      0.01         0.01
  H0041011                    0.25      0.25      0.30      0.05         0.04
  H0045103                    0.04      0.04      0.04      0.01         0.01
  H0045105                    0.10      0.10      0.11      0.01         0.01
  H0045106                    0.12      0.12      0.14      0.01         0.01
  H0045107                    0.23      0.23      0.28      0.10         0.10
  H0045108                    0.28      0.28      0.31      0.21         0.21
  

  Analysis begun on:  Fri Mar 22 15:55:08 2024
  Analysis ended on:  Fri Mar 22 15:55:19 2024
  Total elapsed time: 00:00:11