
  EPA STORM WATER MANAGEMENT MODEL - VERSION 5.2 (Build 5.2.4)
  PYSWMM TOOLKIT API - VERSION v1.0 (2023-11-27)
  ------------------------------------------------------------

  Gievenbeck_e2_T50D2880 
  
  ****************
  Analysis Options
  ****************
  Flow Units ............... CMS
  Process Models:
    Rainfall/Runoff ........ YES
    RDII ................... NO
    Snowmelt ............... NO
    Groundwater ............ NO
    Flow Routing ........... YES
    Ponding Allowed ........ NO
    Water Quality .......... NO
  Infiltration Method ...... HORTON
  Flow Routing Method ...... DYNWAVE
  Surcharge Method ......... SLOT
  Starting Date ............ 01/01/2024 00:00:00
  Ending Date .............. 01/04/2024 04:00:00
  Antecedent Dry Days ...... 14.0
  Report Time Step ......... 00:01:00
  Wet Time Step ............ 00:01:00
  Dry Time Step ............ 00:01:00
  Routing Time Step ........ 1.00 sec
  Variable Time Step ....... YES
  Maximum Trials ........... 8
  Number of Threads ........ 1
  Head Tolerance ........... 0.001500 m
  
  
  **************************        Volume         Depth
  Runoff Quantity Continuity     hectare-m            mm
  **************************     ---------       -------
  Total Precipitation ......         1.072       105.900
  Evaporation Loss .........         0.008         0.815
  Infiltration Loss ........         0.494        48.760
  Surface Runoff ...........         0.570        56.267
  Final Storage ............         0.001         0.131
  Continuity Error (%) .....        -0.070
  
  
  **************************        Volume        Volume
  Flow Routing Continuity        hectare-m      10^6 ltr
  **************************     ---------     ---------
  Dry Weather Inflow .......         0.000         0.000
  Wet Weather Inflow .......         0.570         5.696
  Groundwater Inflow .......         0.000         0.000
  RDII Inflow ..............         0.000         0.000
  External Inflow ..........         0.000         0.000
  External Outflow .........         0.543         5.432
  Flooding Loss ............         0.027         0.270
  Evaporation Loss .........         0.000         0.000
  Exfiltration Loss ........         0.000         0.000
  Initial Stored Volume ....         0.000         0.000
  Final Stored Volume ......         0.000         0.000
  Continuity Error (%) .....        -0.112
  
  
  *************************
  Highest Continuity Errors
  *************************
  Node R0019205 (-21.29%)
  Node R0019206 (1.57%)
  
  
  ***************************
  Time-Step Critical Elements
  ***************************
  None
  
  
  ********************************
  Highest Flow Instability Indexes
  ********************************
  All links are stable.
  
  
  *********************************
  Most Frequent Nonconverging Nodes
  *********************************
  Convergence obtained at all time steps.
  
  
  *************************
  Routing Time Step Summary
  *************************
  Minimum Time Step           :     0.38 sec
  Average Time Step           :     1.00 sec
  Maximum Time Step           :     1.00 sec
  % of Time in Steady State   :     0.00
  Average Iterations per Step :     2.00
  % of Steps Not Converging   :     0.00
  Time Step Frequencies       :
      1.000 -  0.871 sec      :    99.98 %
      0.871 -  0.758 sec      :     0.01 %
      0.758 -  0.660 sec      :     0.00 %
      0.660 -  0.574 sec      :     0.00 %
      0.574 -  0.500 sec      :     0.00 %
  
  
  ***************************
  Subcatchment Runoff Summary
  ***************************
  
  ------------------------------------------------------------------------------------------------------------------------------
                            Total      Total      Total      Total     Imperv       Perv      Total       Total     Peak  Runoff
                           Precip      Runon       Evap      Infil     Runoff     Runoff     Runoff      Runoff   Runoff   Coeff
  Subcatchment                 mm         mm         mm         mm         mm         mm         mm    10^6 ltr      CMS
  ------------------------------------------------------------------------------------------------------------------------------
  EZG_368                  105.90       0.00       0.81      49.05      52.06      11.73      55.98        0.23     0.19   0.529
  EZG_392                  105.90       0.00       0.81      48.86      52.07      11.92      56.18        0.18     0.15   0.530
  EZG_352                  105.90       0.00       0.81      49.35      52.05      11.43      55.67        0.33     0.26   0.526
  EZG_372                  105.90       0.00       0.81      48.27      52.09      12.53      56.80        0.08     0.07   0.536
  EZG_416                  105.90       0.00       0.81      48.78      52.07      12.00      56.26        0.16     0.14   0.531
  EZG_388                  105.90       0.00       0.81      49.13      52.06      11.65      55.90        0.25     0.21   0.528
  EZG_394                  105.90       0.00       0.81      48.75      52.07      12.04      56.30        0.16     0.13   0.532
  EZG_400                  105.90       0.00       0.81      48.69      52.07      12.09      56.35        0.15     0.12   0.532
  EZG_390                  105.90       0.00       0.81      48.84      52.07      11.94      56.20        0.18     0.15   0.531
  EZG_350                  105.90       0.00       0.81      49.14      52.06      11.64      55.89        0.26     0.21   0.528
  EZG_370                  105.90       0.00       0.81      48.94      52.06      11.84      56.10        0.20     0.17   0.530
  EZG_398                  105.90       0.00       0.81      48.08      52.10      12.71      56.99        0.06     0.05   0.538
  EZG_382                  105.90       0.00       0.81      48.02      52.10      12.78      57.06        0.05     0.05   0.539
  EZG_374                  105.90       0.00       0.97      40.89      62.46      10.86      63.95        0.24     0.19   0.604
  EZG_412                  105.90       0.00       0.81      47.63      52.11      13.18      57.48        0.02     0.02   0.543
  EZG_344                  105.90       0.00       0.81      48.68      52.07      12.10      56.37        0.14     0.12   0.532
  EZG_376                  105.90       0.00       0.81      48.52      52.08      12.27      56.54        0.11     0.10   0.534
  EZG_356                  105.90       0.00       0.81      49.42      52.05      11.36      55.60        0.36     0.28   0.525
  EZG_386                  105.90       0.00       0.81      49.61      52.04      11.16      55.40        0.44     0.33   0.523
  EZG_380                  105.90       0.00       0.81      49.00      52.06      11.78      56.03        0.22     0.18   0.529
  EZG_378                  105.90       0.00       0.81      48.90      52.07      11.88      56.13        0.19     0.16   0.530
  EZG_414                  105.90       0.00       0.81      48.01      52.10      12.79      57.07        0.05     0.05   0.539
  EZG_402                  105.90       0.00       0.81      48.86      52.07      11.92      56.18        0.18     0.15   0.530
  EZG_358                  105.90       0.00       0.81      49.41      52.05      11.37      55.61        0.35     0.27   0.525
  EZG_364                  105.90       0.00       0.81      49.41      52.05      11.37      55.61        0.35     0.27   0.525
  EZG_410                  105.90       0.00       0.81      48.55      52.08      12.24      56.50        0.12     0.10   0.534
  EZG_366                  105.90       0.00       0.81      48.64      52.07      12.14      56.41        0.14     0.12   0.533
  EZG_18259                105.90       0.00       0.81      48.64      52.07      12.15      56.41        0.13     0.12   0.533
  EZG_18258                105.90       0.00       0.81      47.83      52.11      12.98      57.27        0.04     0.03   0.541
  EZG_346                  105.90       0.00       0.79      49.76      51.02      11.92      55.29        0.20     0.17   0.522
  EZG_348                  105.90       0.00       0.79      49.39      51.04      12.30      55.68        0.12     0.11   0.526
  
  
  ******************
  Node Depth Summary
  ******************
  
  ---------------------------------------------------------------------------------
                                 Average  Maximum  Maximum  Time of Max    Reported
                                   Depth    Depth      HGL   Occurrence   Max Depth
  Node                 Type       Meters   Meters   Meters  days hr:min      Meters
  ---------------------------------------------------------------------------------
  R0019466             JUNCTION     0.02     2.81    72.26     0  18:03        2.81
  R0019468             JUNCTION     0.03     2.73    72.04     0  18:03        2.73
  R0019831             JUNCTION     0.01     1.66    70.83     0  18:01        1.66
  R0019825             JUNCTION     0.02     1.50    70.34     0  18:01        1.50
  R0019843             JUNCTION     0.04     2.12    69.75     0  18:05        1.97
  R0019368             JUNCTION     0.05     1.95    68.74     0  18:05        1.95
  R0019369             JUNCTION     0.04     1.31    67.90     0  18:05        1.25
  R0019370             JUNCTION     0.03     0.69    66.59     0  18:05        0.67
  R0019345             JUNCTION     0.03     2.05    71.95     0  18:05        1.95
  R0019346             JUNCTION     0.02     2.14    71.94     0  18:05        1.89
  R0043600             JUNCTION     0.03     2.82    72.49     0  18:05        2.60
  R0019203             JUNCTION     0.03     2.64    72.18     0  18:05        2.47
  R0043594             JUNCTION     0.02     2.75    72.48     0  18:04        2.36
  R0021458             JUNCTION     0.03     2.60    72.25     0  18:04        2.29
  R0019202             JUNCTION     0.02     2.66    72.24     0  18:05        2.39
  R0019373             JUNCTION     0.02     2.80    72.47     0  18:04        2.80
  R0019254             JUNCTION     0.02     2.13    72.17     0  18:03        2.13
  R0019716             JUNCTION     0.03     2.52    71.53     0  18:05        1.97
  R0019946             JUNCTION     0.06     2.42    71.04     0  18:05        2.02
  R0013935             JUNCTION     0.01     1.62    70.45     0  18:02        1.62
  R0019939             JUNCTION     0.02     1.92    70.49     0  18:05        1.82
  R0019944             JUNCTION     0.03     1.92    70.20     0  18:05        1.70
  R0043703             JUNCTION     0.04     2.09    70.69     0  18:05        1.76
  R0019945             JUNCTION     0.04     1.98    70.38     0  18:05        1.72
  R0039621             JUNCTION     0.00     1.56    71.13     0  18:03        1.56
  R0019838             JUNCTION     0.02     1.80    71.26     0  18:03        1.80
  R0039606             JUNCTION     0.02     2.66    72.25     0  18:05        2.37
  R0019204             JUNCTION     0.00     0.00    69.91     0  00:00        0.00
  R0019205             JUNCTION     0.00     0.07    69.69     0  18:06        0.07
  R0019849             JUNCTION     0.02     1.92    70.44     0  18:05        1.71
  R0019371             JUNCTION     0.00     0.00    70.41     0  00:00        0.00
  R0019718             JUNCTION     0.05     2.70    72.12     0  18:05        2.49
  R0021442             JUNCTION     0.03     2.05    72.10     0  18:01        2.05
  R0019247             JUNCTION     0.03     2.26    72.14     0  18:05        1.87
  R0019719             JUNCTION     0.02     2.30    71.98     0  18:05        1.80
  R0019767             JUNCTION     0.03     0.73    65.46     0  18:05        0.72
  R0019768             JUNCTION     0.03     0.59    64.36     0  18:05        0.58
  R0021453             JUNCTION     0.01     2.40    72.35     0  18:04        2.22
  R0019839             JUNCTION     0.02     2.02    71.41     0  18:03        1.90
  R0019717             JUNCTION     0.03     2.56    71.90     0  18:05        2.19
  R0019252             JUNCTION     0.02     1.94    72.13     0  18:01        1.94
  R0019721             JUNCTION     0.02     1.96    71.83     0  18:05        1.90
  R0019942             JUNCTION     0.02     1.86    70.51     0  18:05        1.63
  R0019206             JUNCTION     0.00     0.86    69.93     0  18:05        0.51
  R0019840             JUNCTION     0.02     2.13    71.10     0  18:05        2.13
  R0043702             JUNCTION     0.03     2.34    71.04     0  18:05        2.33
  R0019723             JUNCTION     0.01     1.72    71.80     0  18:04        1.72
  R0019724             JUNCTION     0.01     1.72    71.88     0  18:04        1.68
  R0021433             JUNCTION     0.02     2.15    72.54     0  18:01        2.15
  R0021435             JUNCTION     0.02     2.11    72.29     0  18:01        2.11
  R0019769             OUTFALL      0.03     0.59    63.97     0  18:05        0.58
  
  
  *******************
  Node Inflow Summary
  *******************
  
  -------------------------------------------------------------------------------------------------
                                  Maximum  Maximum                  Lateral       Total        Flow
                                  Lateral    Total  Time of Max      Inflow      Inflow     Balance
                                   Inflow   Inflow   Occurrence      Volume      Volume       Error
  Node                 Type           CMS      CMS  days hr:min    10^6 ltr    10^6 ltr     Percent
  -------------------------------------------------------------------------------------------------
  R0019466             JUNCTION     0.189    0.222     0  18:05       0.231       0.376       0.009
  R0019468             JUNCTION     0.117    0.192     0  18:05       0.135       0.484      -0.002
  R0019831             JUNCTION     0.153    0.153     0  18:05       0.182       0.182       0.006
  R0019825             JUNCTION     0.153    0.254     0  18:05       0.183       0.357       0.017
  R0019843             JUNCTION     0.000    2.764     0  18:05           0        5.43      -0.031
  R0019368             JUNCTION     0.000    2.701     0  18:05           0        5.43      -0.019
  R0019369             JUNCTION     0.000    2.665     0  18:05           0        5.43      -0.009
  R0019370             JUNCTION     0.000    2.623     0  18:05           0        5.43       0.002
  R0019345             JUNCTION     0.000    0.163     0  18:02           0        0.32       0.013
  R0019346             JUNCTION     0.022    0.318     0  18:03      0.0229       0.553       0.006
  R0043600             JUNCTION     0.000    0.224     0  18:04           0       0.591      -0.037
  R0019203             JUNCTION     0.047    0.948     0  18:05      0.0504        1.52      -0.043
  R0043594             JUNCTION     0.258    0.687     0  18:04       0.329       0.482      -0.113
  R0021458             JUNCTION     0.208    0.680     0  18:05       0.257       0.739      -0.048
  R0019202             JUNCTION     0.070    0.855     0  18:04      0.0769       0.881      -0.160
  R0019373             JUNCTION     0.167    0.230     0  18:03       0.201       0.217       0.495
  R0019254             JUNCTION     0.139    0.176     0  18:01       0.164       0.323       0.014
  R0019716             JUNCTION     0.206    1.831     0  18:05       0.255        3.11      -0.008
  R0019946             JUNCTION     0.000    1.851     0  18:05           0        3.11      -0.006
  R0013935             JUNCTION     0.133    0.133     0  18:05       0.156       0.156       0.009
  R0019939             JUNCTION     0.052    0.129     0  18:02      0.0564       0.198      -0.012
  R0019944             JUNCTION     0.125    2.133     0  18:05       0.145        3.93       0.006
  R0043703             JUNCTION     0.150    1.933     0  18:05       0.178        3.29      -0.006
  R0019945             JUNCTION     0.000    2.022     0  18:05           0        3.79      -0.012
  R0039621             JUNCTION     0.000    0.255     0  18:05           0      0.0457      -0.474
  R0019838             JUNCTION     0.277    0.303     0  18:05       0.356       0.362      -0.065
  R0039606             JUNCTION     0.000    0.667     0  18:04           0       0.738       0.083
  R0019204             JUNCTION     0.000    0.000     0  00:00           0           0       0.000 ltr
  R0019205             JUNCTION     0.000    0.029     0  18:05           0    0.000526     -17.551
  R0019849             JUNCTION     0.000    0.223     0  18:02           0       0.503       0.001
  R0019371             JUNCTION     0.000    0.000     0  00:00           0           0       0.000 ltr
  R0019718             JUNCTION     0.180    1.111     0  18:05       0.218        1.74      -0.205
  R0021442             JUNCTION     0.190    0.262     0  18:05       0.242       0.517       0.004
  R0019247             JUNCTION     0.099    0.226     0  18:03       0.113       0.592       0.045
  R0019719             JUNCTION     0.104    0.403     0  18:03       0.119       0.672       0.200
  R0019767             JUNCTION     0.000    2.601     0  18:05           0        5.43      -0.002
  R0019768             JUNCTION     0.000    2.585     0  18:05           0        5.43       0.002
  R0021453             JUNCTION     0.123    0.625     0  18:04       0.143       0.146      -1.142
  R0019839             JUNCTION     0.274    0.406     0  18:03       0.352       0.666       0.018
  R0019717             JUNCTION     0.335    1.640     0  18:05       0.442        2.85       0.022
  R0019252             JUNCTION     0.161    0.181     0  18:05       0.192       0.194      -0.027
  R0019721             JUNCTION     0.046    0.168     0  18:03      0.0497       0.213       0.016
  R0019942             JUNCTION     0.000    0.123     0  18:01           0       0.305      -0.032
  R0019206             JUNCTION     0.000    0.128     0  18:05           0     0.00448       1.600
  R0019840             JUNCTION     0.000    0.551     0  18:03           0        1.15      -0.027
  R0043702             JUNCTION     0.274    0.735     0  18:03       0.352         1.5       0.195
  R0019723             JUNCTION     0.116    0.155     0  18:04       0.134       0.169      -0.080
  R0019724             JUNCTION     0.033    0.057     0  18:02      0.0351      0.0353      -0.202
  R0021433             JUNCTION     0.168    0.168     0  18:05       0.201       0.201      -0.045
  R0021435             JUNCTION     0.109    0.180     0  18:05       0.124       0.305       0.013
  R0019769             OUTFALL      0.000    2.595     0  18:05           0        5.43       0.000
  
  
  **********************
  Node Surcharge Summary
  **********************
  
  Surcharging occurs when water rises above the top of the highest conduit.
  ---------------------------------------------------------------------
                                               Max. Height   Min. Depth
                                   Hours       Above Crown    Below Rim
  Node                 Type      Surcharged         Meters       Meters
  ---------------------------------------------------------------------
  R0019466             JUNCTION        0.27          2.510        0.000
  R0019468             JUNCTION        0.27          2.430        0.000
  R0019831             JUNCTION        0.18          1.360        0.000
  R0019825             JUNCTION        0.22          1.200        0.000
  R0019843             JUNCTION        0.12          1.216        1.404
  R0019368             JUNCTION        0.15          1.050        0.000
  R0019369             JUNCTION        0.04          0.409        0.641
  R0019345             JUNCTION        0.17          1.750        0.000
  R0019346             JUNCTION        0.14          1.740        0.000
  R0043600             JUNCTION        0.16          2.419        0.161
  R0019203             JUNCTION        0.07          1.739        0.241
  R0043594             JUNCTION        0.05          1.820        0.000
  R0021458             JUNCTION        0.06          1.696        0.384
  R0019202             JUNCTION        0.07          1.764        0.236
  R0019373             JUNCTION        0.19          2.500        0.000
  R0019254             JUNCTION        0.19          1.830        0.000
  R0019716             JUNCTION        0.09          1.622        0.098
  R0019946             JUNCTION        0.13          1.520        0.000
  R0013935             JUNCTION        0.19          1.320        0.000
  R0019939             JUNCTION        0.27          1.620        0.000
  R0019944             JUNCTION        0.08          1.023        0.507
  R0043703             JUNCTION        0.08          1.191        0.129
  R0019945             JUNCTION        0.08          1.084        0.376
  R0039621             JUNCTION        0.09          1.060        0.000
  R0019838             JUNCTION        0.10          1.300        0.000
  R0039606             JUNCTION        0.07          1.757        0.243
  R0019849             JUNCTION        0.29          1.622        0.308
  R0019718             JUNCTION        0.08          1.797        0.203
  R0021442             JUNCTION        0.29          1.750        0.000
  R0019247             JUNCTION        0.18          1.860        0.000
  R0019719             JUNCTION        0.12          1.800        0.000
  R0021453             JUNCTION        0.04          1.500        0.000
  R0019839             JUNCTION        0.10          1.516        0.134
  R0019717             JUNCTION        0.07          1.624        0.226
  R0019252             JUNCTION        0.17          1.640        0.000
  R0019721             JUNCTION        0.14          1.560        0.000
  R0019942             JUNCTION        0.24          1.565        0.085
  R0019206             JUNCTION        0.02          0.558        1.152
  R0019840             JUNCTION        0.13          1.632        0.938
  R0043702             JUNCTION        0.15          1.841        1.069
  R0019723             JUNCTION        0.11          1.320        0.000
  R0019724             JUNCTION        0.11          1.422        0.028
  R0021433             JUNCTION        0.23          1.850        0.000
  R0021435             JUNCTION        0.26          1.810        0.000
  
  
  *********************
  Node Flooding Summary
  *********************
  
  Flooding refers to all water that overflows a node, whether it ponds or not.
  --------------------------------------------------------------------------
                                                             Total   Maximum
                                 Maximum   Time of Max       Flood    Ponded
                        Hours       Rate    Occurrence      Volume     Depth
  Node                 Flooded       CMS   days hr:min    10^6 ltr    Meters
  --------------------------------------------------------------------------
  R0019466                0.04     0.147      0  18:05       0.011     0.000
  R0019468                0.04     0.039      0  18:05       0.003     0.000
  R0019831                0.07     0.052      0  18:05       0.007     0.000
  R0019825                0.12     0.211      0  18:05       0.052     0.000
  R0019368                0.01     0.075      0  18:05       0.002     0.000
  R0019345                0.01     0.046      0  18:05       0.001     0.000
  R0019346                0.01     0.037      0  18:05       0.000     0.000
  R0043594                0.01     0.154      0  18:04       0.000     0.000
  R0019373                0.01     0.045      0  18:04       0.000     0.000
  R0019254                0.03     0.015      0  18:05       0.001     0.000
  R0019946                0.01     0.086      0  18:05       0.001     0.000
  R0013935                0.08     0.091      0  18:05       0.015     0.000
  R0019939                0.01     0.017      0  18:05       0.000     0.000
  R0039621                0.06     0.255      0  18:05       0.042     0.000
  R0019838                0.02     0.048      0  18:05       0.002     0.000
  R0021442                0.11     0.202      0  18:05       0.037     0.000
  R0019247                0.01     0.107      0  18:05       0.001     0.000
  R0019719                0.01     0.023      0  18:05       0.000     0.000
  R0021453                0.01     0.123      0  18:04       0.001     0.000
  R0019252                0.09     0.181      0  18:05       0.035     0.000
  R0019721                0.01     0.069      0  18:05       0.002     0.000
  R0019723                0.03     0.076      0  18:05       0.006     0.000
  R0021433                0.10     0.096      0  18:05       0.020     0.000
  R0021435                0.12     0.108      0  18:05       0.031     0.000
  
  
  ***********************
  Outfall Loading Summary
  ***********************
  
  -----------------------------------------------------------
                         Flow       Avg       Max       Total
                         Freq      Flow      Flow      Volume
  Outfall Node           Pcnt       CMS       CMS    10^6 ltr
  -----------------------------------------------------------
  R0019769              64.29     0.031     2.595       5.432
  -----------------------------------------------------------
  System                64.29     0.031     2.595       5.432
  
  
  ********************
  Link Flow Summary
  ********************
  
  -----------------------------------------------------------------------------
                                 Maximum  Time of Max   Maximum    Max/    Max/
                                  |Flow|   Occurrence   |Veloc|    Full    Full
  Link                 Type          CMS  days hr:min     m/sec    Flow   Depth
  -----------------------------------------------------------------------------
  H0014431             CONDUIT     0.089     0  18:02      1.25    1.64    1.00
  H0014433             CONDUIT     0.100     0  18:05      1.42    1.28    1.00
  H0014352             CONDUIT     2.701     0  18:05      4.25    1.11    1.00
  H0014373             CONDUIT     2.623     0  18:05      4.34    1.21    1.00
  H0017981             CONDUIT     0.164     0  18:02      2.31    4.63    1.00
  H0017755             CONDUIT     0.251     0  18:04      2.00    2.04    1.00
  H0017791             CONDUIT     0.474     0  18:05      0.75    0.69    1.00
  H0017357             CONDUIT     0.219     0  18:03      3.10    3.51    1.00
  H0018216             CONDUIT     0.163     0  18:02      2.30    2.96    1.00
  H0016792             CONDUIT     1.851     0  18:05      2.91    1.06    1.00
  H0019507             CONDUIT     0.088     0  18:02      1.24    1.22    1.00
  H0019998             CONDUIT     2.145     0  18:05      3.47    0.86    1.00
  H0019576             CONDUIT     1.936     0  18:05      3.04    1.30    1.00
  H0020087             CONDUIT     0.255     0  18:05      1.30    1.12    1.00
  H0020211             CONDUIT     1.806     0  18:05      2.84    4.50    1.00
  H0018982             CONDUIT     0.667     0  18:04      1.05    1.07    1.00
  H0018753             CONDUIT     0.082     0  18:03      1.16    1.16    1.00
  H0018845             CONDUIT     0.000     0  00:00      0.00    0.00    0.12
  H0018863             CONDUIT     0.125     0  18:02      1.77    2.94    1.00
  H0019156             CONDUIT     0.000     0  00:00      0.00    0.00    0.00
  H0018929             CONDUIT     0.941     0  18:05      1.48    0.82    1.00
  H0018440             CONDUIT     0.158     0  18:01      2.24    2.83    1.00
  H0018456             CONDUIT     0.311     0  18:03      2.47    1.89    1.00
  H0018968             CONDUIT     2.585     0  18:05      5.17    0.99    0.73
  H0022036             CONDUIT     0.505     0  18:04      0.79    0.39    1.00
  H0021806             CONDUIT     0.224     0  18:03      1.78    1.98    1.00
  H0022111             CONDUIT     0.185     0  18:03      0.94    1.32    1.00
  H0021440             CONDUIT     1.642     0  18:05      2.58    1.06    1.00
  H0021704             CONDUIT     1.115     0  18:05      1.75    2.13    1.00
  H0020521             CONDUIT     0.082     0  18:01      1.16    1.66    1.00
  H0020755             CONDUIT     0.161     0  18:03      1.28    1.78    1.00
  H0020530             CONDUIT     2.665     0  18:05      4.19    2.28    1.00
  H0020618             CONDUIT     2.025     0  18:05      3.35    1.26    1.00
  H0021163             CONDUIT     0.123     0  18:01      1.74    2.05    1.00
  H0020497             CONDUIT     0.128     0  18:05      1.80    0.28    1.00
  H0024325             CONDUIT     0.397     0  18:03      2.02    1.18    1.00
  H0023585             CONDUIT     0.707     0  18:03      3.60    1.62    1.00
  H0024098             CONDUIT     0.220     0  18:02      3.12    2.57    1.00
  H0024235             CONDUIT     0.399     0  18:03      2.03    1.63    1.00
  H0024282             CONDUIT     0.029     0  18:05      0.63    0.29    1.00
  H0024308             CONDUIT     2.595     0  18:05      5.90    0.76    0.65
  H0024498             CONDUIT     0.165     0  18:02      2.34    2.56    1.00
  H0026990             CONDUIT     0.125     0  18:03      1.00    0.95    1.00
  H0041650             CONDUIT     0.839     0  18:04      1.32    0.98    1.00
  H0041011             CONDUIT     0.115     0  18:01      1.62    1.14    1.00
  H0045103             CONDUIT     0.645     0  18:04      1.03    0.81    1.00
  H0045104             CONDUIT     2.601     0  18:05      4.86    0.92    0.78
  H0045105             CONDUIT     0.042     0  18:04      0.59    0.73    1.00
  H0045106             CONDUIT     0.509     0  18:03      2.59    0.68    1.00
  H0045107             CONDUIT     0.072     0  18:07      1.01    1.18    1.00
  H0045108             CONDUIT     0.089     0  18:09      1.25    1.59    1.00
  
  
  ***************************
  Flow Classification Summary
  ***************************
  
  -------------------------------------------------------------------------------------
                      Adjusted    ---------- Fraction of Time in Flow Class ---------- 
                       /Actual         Up    Down  Sub   Sup   Up    Down  Norm  Inlet 
  Conduit               Length    Dry  Dry   Dry   Crit  Crit  Crit  Crit  Ltd   Ctrl  
  -------------------------------------------------------------------------------------
  H0014431                1.00   0.05  0.00  0.00  0.95  0.00  0.00  0.00  0.95  0.00
  H0014433                1.00   0.05  0.00  0.00  0.95  0.00  0.00  0.00  0.95  0.00
  H0014352                1.00   0.05  0.00  0.00  0.34  0.62  0.00  0.00  0.95  0.00
  H0014373                1.00   0.05  0.00  0.00  0.32  0.64  0.00  0.00  0.30  0.00
  H0017981                1.00   0.05  0.00  0.00  0.00  0.00  0.00  0.95  0.00  0.00
  H0017755                1.00   0.05  0.00  0.00  0.00  0.00  0.00  0.95  0.00  0.00
  H0017791                1.00   0.05  0.00  0.00  0.95  0.00  0.00  0.00  0.95  0.00
  H0017357                1.00   0.05  0.95  0.00  0.00  0.00  0.00  0.00  0.76  0.00
  H0018216                1.00   0.05  0.31  0.00  0.64  0.00  0.00  0.00  0.95  0.00
  H0016792                1.00   0.05  0.30  0.00  0.65  0.00  0.00  0.00  0.95  0.00
  H0019507                1.00   0.05  0.00  0.00  0.95  0.00  0.00  0.00  0.95  0.00
  H0019998                1.00   0.05  0.00  0.00  0.32  0.63  0.00  0.00  0.65  0.00
  H0019576                1.00   0.05  0.00  0.00  0.35  0.61  0.00  0.00  0.63  0.00
  H0020087                1.00   0.05  0.94  0.00  0.02  0.00  0.00  0.00  0.76  0.00
  H0020211                1.00   0.05  0.00  0.00  0.95  0.00  0.00  0.00  0.30  0.00
  H0018982                1.00   0.05  0.00  0.00  0.95  0.00  0.00  0.00  0.32  0.00
  H0018753                1.00   0.05  0.00  0.00  0.95  0.00  0.00  0.00  0.95  0.00
  H0018845                1.00   0.24  0.76  0.00  0.00  0.00  0.00  0.00  0.00  0.00
  H0018863                1.00   0.05  0.00  0.00  0.95  0.00  0.00  0.00  0.94  0.00
  H0019156                1.00   1.00  0.00  0.00  0.00  0.00  0.00  0.00  0.00  0.00
  H0018929                1.00   0.05  0.31  0.00  0.65  0.00  0.00  0.00  0.95  0.00
  H0018440                1.00   0.05  0.00  0.00  0.95  0.00  0.00  0.00  0.94  0.00
  H0018456                1.00   0.05  0.00  0.00  0.95  0.00  0.00  0.00  0.94  0.00
  H0018968                1.00   0.05  0.30  0.00  0.01  0.64  0.00  0.00  0.32  0.00
  H0022036                1.00   0.05  0.00  0.00  0.06  0.07  0.00  0.83  0.04  0.00
  H0021806                1.00   0.05  0.31  0.00  0.65  0.00  0.00  0.00  0.66  0.00
  H0022111                1.00   0.05  0.00  0.00  0.95  0.00  0.00  0.00  0.00  0.00
  H0021440                1.00   0.05  0.00  0.00  0.34  0.62  0.00  0.00  0.01  0.00
  H0021704                1.00   0.05  0.00  0.00  0.00  0.00  0.00  0.95  0.00  0.00
  H0020521                1.00   0.05  0.00  0.00  0.95  0.00  0.00  0.00  0.95  0.00
  H0020755                1.00   0.05  0.32  0.00  0.64  0.00  0.00  0.00  0.95  0.00
  H0020530                1.00   0.05  0.00  0.00  0.34  0.62  0.00  0.00  0.02  0.00
  H0020618                1.00   0.05  0.00  0.00  0.33  0.63  0.00  0.00  0.34  0.00
  H0021163                1.00   0.05  0.00  0.00  0.94  0.02  0.00  0.00  0.32  0.00
  H0020497                1.20   0.05  0.95  0.00  0.01  0.00  0.00  0.00  0.76  0.00
  H0024325                1.00   0.05  0.00  0.00  0.34  0.62  0.00  0.00  0.32  0.00
  H0023585                1.00   0.05  0.00  0.00  0.00  0.00  0.00  0.95  0.00  0.00
  H0024098                1.00   0.05  0.31  0.00  0.64  0.00  0.00  0.00  0.95  0.00
  H0024235                1.00   0.05  0.00  0.00  0.00  0.00  0.00  0.95  0.00  0.00
  H0024282                1.00   0.24  0.00  0.00  0.76  0.00  0.00  0.00  0.00  0.00
  H0024308                1.00   0.05  0.00  0.00  0.30  0.65  0.00  0.00  0.23  0.00
  H0024498                1.00   0.05  0.00  0.00  0.00  0.00  0.00  0.95  0.00  0.00
  H0026990                1.00   0.05  0.00  0.00  0.95  0.00  0.00  0.00  0.95  0.00
  H0041650                1.00   0.35  0.01  0.00  0.64  0.00  0.00  0.00  0.93  0.00
  H0041011                1.00   0.05  0.00  0.00  0.95  0.00  0.00  0.00  0.94  0.00
  H0045103                1.00   0.05  0.00  0.00  0.95  0.00  0.00  0.00  0.65  0.00
  H0045104                1.00   0.05  0.00  0.00  0.31  0.64  0.00  0.00  0.65  0.00
  H0045105                1.00   0.05  0.00  0.00  0.95  0.00  0.00  0.00  0.95  0.00
  H0045106                1.00   0.05  0.31  0.00  0.02  0.62  0.00  0.00  0.95  0.00
  H0045107                1.00   0.05  0.00  0.00  0.95  0.00  0.00  0.00  0.95  0.00
  H0045108                1.00   0.05  0.00  0.00  0.95  0.00  0.00  0.00  0.95  0.00
  
  
  *************************
  Conduit Surcharge Summary
  *************************
  
  ----------------------------------------------------------------------------
                                                           Hours        Hours 
                         --------- Hours Full --------   Above Full   Capacity
  Conduit                Both Ends  Upstream  Dnstream   Normal Flow   Limited
  ----------------------------------------------------------------------------
  H0014431                    0.27      0.27      0.27      0.30         0.27
  H0014433                    0.18      0.18      0.22      0.09         0.09
  H0014352                    0.12      0.12      0.15      0.04         0.04
  H0014373                    0.01      0.04      0.01      0.10         0.02
  H0017981                    0.15      0.17      0.15      0.32         0.15
  H0017755                    0.15      0.16      0.15      0.18         0.14
  H0017791                    0.05      0.05      0.06      0.01         0.01
  H0017357                    0.13      0.13      0.19      0.13         0.01
  H0018216                    0.17      0.19      0.17      0.24         0.18
  H0016792                    0.09      0.09      0.13      0.01         0.01
  H0019507                    0.19      0.19      0.27      0.03         0.02
  H0019998                    0.08      0.08      0.12      0.01         0.01
  H0019576                    0.08      0.08      0.08      0.09         0.06
  H0020087                    0.09      0.09      0.10      0.03         0.01
  H0020211                    0.08      0.13      0.08      0.28         0.09
  H0018982                    0.06      0.06      0.07      0.01         0.01
  H0018753                    0.19      0.19      0.27      0.01         0.01
  H0018863                    0.27      0.27      0.29      0.16         0.15
  H0018929                    0.07      0.07      0.08      0.01         0.01
  H0018440                    0.23      0.29      0.23      0.32         0.26
  H0018456                    0.14      0.14      0.14      0.14         0.13
  H0022036                    0.04      0.04      0.05      0.01         0.01
  H0021806                    0.16      0.18      0.16      0.20         0.16
  H0022111                    0.10      0.10      0.10      0.03         0.03
  H0021440                    0.07      0.07      0.09      0.01         0.01
  H0021704                    0.07      0.08      0.07      0.16         0.06
  H0020521                    0.17      0.17      0.19      0.07         0.07
  H0020755                    0.14      0.14      0.14      0.07         0.07
  H0020530                    0.04      0.15      0.04      0.19         0.14
  H0020618                    0.08      0.08      0.08      0.10         0.07
  H0021163                    0.22      0.22      0.24      0.18         0.15
  H0020497                    0.02      0.02      0.22      0.01         0.01
  H0024325                    0.10      0.10      0.13      0.01         0.01
  H0023585                    0.13      0.15      0.13      0.15         0.13
  H0024098                    0.29      0.29      0.34      0.23         0.22
  H0024235                    0.11      0.12      0.12      0.10         0.09
  H0024282                    0.01      0.01      0.02      0.01         0.01
  H0024498                    0.13      0.27      0.13      0.31         0.22
  H0026990                    0.11      0.11      0.14      0.01         0.01
  H0041650                    0.07      0.07      0.07      0.01         0.01
  H0041011                    0.24      0.24      0.29      0.03         0.03
  H0045103                    0.07      0.07      0.07      0.01         0.01
  H0045105                    0.11      0.11      0.12      0.01         0.01
  H0045106                    0.13      0.13      0.15      0.01         0.01
  H0045107                    0.23      0.23      0.26      0.11         0.11
  H0045108                    0.26      0.26      0.29      0.21         0.21
  

  Analysis begun on:  Fri Mar 22 15:57:02 2024
  Analysis ended on:  Fri Mar 22 15:57:12 2024
  Total elapsed time: 00:00:10