
  EPA STORM WATER MANAGEMENT MODEL - VERSION 5.2 (Build 5.2.4)
  PYSWMM TOOLKIT API - VERSION v1.0 (2023-11-27)
  ------------------------------------------------------------

  Gievenbeck_e2_T3D20 
  
  ****************
  Analysis Options
  ****************
  Flow Units ............... CMS
  Process Models:
    Rainfall/Runoff ........ YES
    RDII ................... NO
    Snowmelt ............... NO
    Groundwater ............ NO
    Flow Routing ........... YES
    Ponding Allowed ........ NO
    Water Quality .......... NO
  Infiltration Method ...... HORTON
  Flow Routing Method ...... DYNWAVE
  Surcharge Method ......... SLOT
  Starting Date ............ 01/01/2024 00:00:00
  Ending Date .............. 01/04/2024 04:00:00
  Antecedent Dry Days ...... 14.0
  Report Time Step ......... 00:01:00
  Wet Time Step ............ 00:01:00
  Dry Time Step ............ 00:01:00
  Routing Time Step ........ 1.00 sec
  Variable Time Step ....... YES
  Maximum Trials ........... 8
  Number of Threads ........ 1
  Head Tolerance ........... 0.001500 m
  
  
  **************************        Volume         Depth
  Runoff Quantity Continuity     hectare-m            mm
  **************************     ---------       -------
  Total Precipitation ......         0.155        15.300
  Evaporation Loss .........         0.010         0.959
  Infiltration Loss ........         0.087         8.547
  Surface Runoff ...........         0.059         5.834
  Final Storage ............         0.000         0.000
  Continuity Error (%) .....        -0.264
  
  
  **************************        Volume        Volume
  Flow Routing Continuity        hectare-m      10^6 ltr
  **************************     ---------     ---------
  Dry Weather Inflow .......         0.000         0.000
  Wet Weather Inflow .......         0.059         0.591
  Groundwater Inflow .......         0.000         0.000
  RDII Inflow ..............         0.000         0.000
  External Inflow ..........         0.000         0.000
  External Outflow .........         0.059         0.593
  Flooding Loss ............         0.000         0.000
  Evaporation Loss .........         0.000         0.000
  Exfiltration Loss ........         0.000         0.000
  Initial Stored Volume ....         0.000         0.000
  Final Stored Volume ......         0.000         0.000
  Continuity Error (%) .....        -0.411
  
  
  *************************
  Highest Continuity Errors
  *************************
  Node R0019718 (-3.14%)
  Node R0019717 (1.12%)
  
  
  ***************************
  Time-Step Critical Elements
  ***************************
  None
  
  
  ********************************
  Highest Flow Instability Indexes
  ********************************
  All links are stable.
  
  
  *********************************
  Most Frequent Nonconverging Nodes
  *********************************
  Convergence obtained at all time steps.
  
  
  *************************
  Routing Time Step Summary
  *************************
  Minimum Time Step           :     0.57 sec
  Average Time Step           :     1.00 sec
  Maximum Time Step           :     1.00 sec
  % of Time in Steady State   :     0.00
  Average Iterations per Step :     2.00
  % of Steps Not Converging   :     0.00
  Time Step Frequencies       :
      1.000 -  0.871 sec      :   100.00 %
      0.871 -  0.758 sec      :     0.00 %
      0.758 -  0.660 sec      :     0.00 %
      0.660 -  0.574 sec      :     0.00 %
      0.574 -  0.500 sec      :     0.00 %
  
  
  ***************************
  Subcatchment Runoff Summary
  ***************************
  
  ------------------------------------------------------------------------------------------------------------------------------
                            Total      Total      Total      Total     Imperv       Perv      Total       Total     Peak  Runoff
                           Precip      Runon       Evap      Infil     Runoff     Runoff     Runoff      Runoff   Runoff   Coeff
  Subcatchment                 mm         mm         mm         mm         mm         mm         mm    10^6 ltr      CMS
  ------------------------------------------------------------------------------------------------------------------------------
  EZG_368                   15.30       0.00       0.95       8.60       6.73       0.07       5.79        0.02     0.05   0.378
  EZG_392                   15.30       0.00       0.95       8.59       6.74       0.08       5.81        0.02     0.04   0.379
  EZG_352                   15.30       0.00       0.96       8.61       6.72       0.05       5.77        0.03     0.06   0.377
  EZG_372                   15.30       0.00       0.94       8.54       6.76       0.13       5.88        0.01     0.02   0.384
  EZG_416                   15.30       0.00       0.95       8.58       6.74       0.08       5.81        0.02     0.04   0.380
  EZG_388                   15.30       0.00       0.95       8.60       6.73       0.06       5.78        0.03     0.05   0.378
  EZG_394                   15.30       0.00       0.95       8.58       6.75       0.08       5.82        0.02     0.03   0.380
  EZG_400                   15.30       0.00       0.95       8.58       6.75       0.09       5.82        0.02     0.03   0.381
  EZG_390                   15.30       0.00       0.95       8.59       6.74       0.08       5.81        0.02     0.04   0.380
  EZG_350                   15.30       0.00       0.95       8.60       6.73       0.06       5.78        0.03     0.05   0.378
  EZG_370                   15.30       0.00       0.95       8.59       6.74       0.07       5.80        0.02     0.04   0.379
  EZG_398                   15.30       0.00       0.94       8.52       6.77       0.15       5.91        0.01     0.01   0.386
  EZG_382                   15.30       0.00       0.93       8.51       6.77       0.16       5.92        0.01     0.01   0.387
  EZG_374                   15.30       0.00       1.15       7.22       8.07       0.11       6.97        0.03     0.05   0.455
  EZG_412                   15.30       0.00       0.93       8.44       6.79       0.24       6.01        0.00     0.01   0.393
  EZG_344                   15.30       0.00       0.95       8.57       6.75       0.09       5.82        0.01     0.03   0.381
  EZG_376                   15.30       0.00       0.94       8.56       6.75       0.10       5.84        0.01     0.03   0.382
  EZG_356                   15.30       0.00       0.96       8.61       6.72       0.05       5.76        0.04     0.07   0.377
  EZG_386                   15.30       0.00       0.96       8.62       6.72       0.04       5.75        0.05     0.08   0.376
  EZG_380                   15.30       0.00       0.95       8.59       6.74       0.07       5.79        0.02     0.04   0.379
  EZG_378                   15.30       0.00       0.95       8.59       6.74       0.07       5.80        0.02     0.04   0.379
  EZG_414                   15.30       0.00       0.93       8.51       6.77       0.16       5.92        0.01     0.01   0.387
  EZG_402                   15.30       0.00       0.95       8.59       6.74       0.08       5.81        0.02     0.04   0.379
  EZG_358                   15.30       0.00       0.96       8.61       6.72       0.05       5.76        0.04     0.07   0.377
  EZG_364                   15.30       0.00       0.96       8.61       6.72       0.05       5.76        0.04     0.07   0.377
  EZG_410                   15.30       0.00       0.94       8.57       6.75       0.10       5.84        0.01     0.03   0.382
  EZG_366                   15.30       0.00       0.95       8.57       6.75       0.09       5.83        0.01     0.03   0.381
  EZG_18259                 15.30       0.00       0.95       8.57       6.75       0.09       5.83        0.01     0.03   0.381
  EZG_18258                 15.30       0.00       0.93       8.48       6.78       0.19       5.96        0.00     0.01   0.389
  EZG_346                   15.30       0.00       0.93       8.73       6.60       0.07       5.68        0.02     0.04   0.371
  EZG_348                   15.30       0.00       0.92       8.71       6.62       0.09       5.72        0.01     0.03   0.374
  
  
  ******************
  Node Depth Summary
  ******************
  
  ---------------------------------------------------------------------------------
                                 Average  Maximum  Maximum  Time of Max    Reported
                                   Depth    Depth      HGL   Occurrence   Max Depth
  Node                 Type       Meters   Meters   Meters  days hr:min      Meters
  ---------------------------------------------------------------------------------
  R0019466             JUNCTION     0.00     0.44    69.89     0  02:10        0.39
  R0019468             JUNCTION     0.00     0.41    69.72     0  02:10        0.37
  R0019831             JUNCTION     0.00     0.15    69.32     0  02:10        0.14
  R0019825             JUNCTION     0.00     0.28    69.12     0  02:10        0.27
  R0019843             JUNCTION     0.00     0.35    67.98     0  02:13        0.35
  R0019368             JUNCTION     0.00     0.53    67.32     0  02:13        0.53
  R0019369             JUNCTION     0.00     0.38    66.97     0  02:13        0.38
  R0019370             JUNCTION     0.00     0.33    66.23     0  02:13        0.32
  R0019345             JUNCTION     0.00     0.26    70.16     0  02:10        0.26
  R0019346             JUNCTION     0.00     0.24    70.04     0  02:10        0.24
  R0043600             JUNCTION     0.00     0.26    69.93     0  02:11        0.26
  R0019203             JUNCTION     0.00     0.30    69.84     0  02:11        0.29
  R0043594             JUNCTION     0.00     0.21    69.94     0  02:10        0.21
  R0021458             JUNCTION     0.00     0.26    69.91     0  02:10        0.26
  R0019202             JUNCTION     0.00     0.27    69.85     0  02:11        0.27
  R0019373             JUNCTION     0.00     0.21    69.88     0  02:11        0.21
  R0019254             JUNCTION     0.00     0.29    70.33     0  02:10        0.28
  R0019716             JUNCTION     0.00     0.34    69.35     0  02:12        0.33
  R0019946             JUNCTION     0.00     0.48    69.10     0  02:12        0.47
  R0013935             JUNCTION     0.00     0.14    68.97     0  02:10        0.14
  R0019939             JUNCTION     0.00     0.29    68.86     0  02:11        0.29
  R0019944             JUNCTION     0.00     0.30    68.58     0  02:13        0.30
  R0043703             JUNCTION     0.00     0.37    68.97     0  02:12        0.36
  R0019945             JUNCTION     0.00     0.37    68.77     0  02:12        0.37
  R0039621             JUNCTION     0.00     0.12    69.69     0  02:10        0.12
  R0019838             JUNCTION     0.00     0.22    69.68     0  02:10        0.22
  R0039606             JUNCTION     0.00     0.26    69.85     0  02:11        0.26
  R0019204             JUNCTION     0.00     0.00    69.91     0  00:00        0.00
  R0019205             JUNCTION     0.00     0.00    69.62     0  00:00        0.00
  R0019849             JUNCTION     0.00     0.33    68.85     0  02:12        0.33
  R0019371             JUNCTION     0.00     0.00    70.41     0  00:00        0.00
  R0019718             JUNCTION     0.00     0.38    69.80     0  02:11        0.38
  R0021442             JUNCTION     0.00     0.60    70.65     0  02:11        0.60
  R0019247             JUNCTION     0.00     0.31    70.19     0  02:11        0.31
  R0019719             JUNCTION     0.00     0.25    69.93     0  02:11        0.25
  R0019767             JUNCTION     0.00     0.35    65.08     0  02:13        0.34
  R0019768             JUNCTION     0.00     0.30    64.07     0  02:13        0.30
  R0021453             JUNCTION     0.00     0.09    70.04     0  02:10        0.09
  R0019839             JUNCTION     0.00     0.20    69.59     0  02:10        0.20
  R0019717             JUNCTION     0.00     0.33    69.67     0  02:11        0.33
  R0019252             JUNCTION     0.00     0.20    70.39     0  02:10        0.19
  R0019721             JUNCTION     0.00     0.20    70.07     0  02:10        0.20
  R0019942             JUNCTION     0.00     0.21    68.86     0  02:12        0.20
  R0019206             JUNCTION     0.00     0.00    69.07     0  00:00        0.00
  R0019840             JUNCTION     0.00     0.18    69.15     0  02:10        0.18
  R0043702             JUNCTION     0.00     0.28    68.98     0  02:10        0.28
  R0019723             JUNCTION     0.00     0.14    70.22     0  02:10        0.14
  R0019724             JUNCTION     0.00     0.08    70.24     0  02:10        0.08
  R0021433             JUNCTION     0.00     0.46    70.85     0  02:10        0.39
  R0021435             JUNCTION     0.00     0.57    70.75     0  02:10        0.56
  R0019769             OUTFALL      0.00     0.30    63.68     0  02:13        0.30
  
  
  *******************
  Node Inflow Summary
  *******************
  
  -------------------------------------------------------------------------------------------------
                                  Maximum  Maximum                  Lateral       Total        Flow
                                  Lateral    Total  Time of Max      Inflow      Inflow     Balance
                                   Inflow   Inflow   Occurrence      Volume      Volume       Error
  Node                 Type           CMS      CMS  days hr:min    10^6 ltr    10^6 ltr     Percent
  -------------------------------------------------------------------------------------------------
  R0019466             JUNCTION     0.047    0.084     0  02:09      0.0239      0.0445       0.226
  R0019468             JUNCTION     0.030    0.098     0  02:10       0.014      0.0583      -0.097
  R0019831             JUNCTION     0.039    0.039     0  02:10      0.0188      0.0188      -0.153
  R0019825             JUNCTION     0.039    0.075     0  02:10      0.0189      0.0377       0.018
  R0019843             JUNCTION     0.000    0.801     0  02:12           0       0.593      -0.032
  R0019368             JUNCTION     0.000    0.800     0  02:13           0       0.593       0.004
  R0019369             JUNCTION     0.000    0.817     0  02:13           0       0.593      -0.009
  R0019370             JUNCTION     0.000    0.796     0  02:13           0       0.593       0.011
  R0019345             JUNCTION     0.000    0.064     0  02:10           0      0.0369       0.098
  R0019346             JUNCTION     0.006    0.107     0  02:10      0.0024      0.0619       0.069
  R0043600             JUNCTION     0.000    0.107     0  02:11           0      0.0716       0.175
  R0019203             JUNCTION     0.012    0.234     0  02:11     0.00523        0.16      -0.002
  R0043594             JUNCTION     0.063    0.093     0  02:10      0.0341      0.0488      -0.466
  R0021458             JUNCTION     0.051    0.127     0  02:10      0.0265      0.0755      -0.030
  R0019202             JUNCTION     0.018    0.124     0  02:11     0.00795      0.0838      -0.076
  R0019373             JUNCTION     0.042    0.042     0  02:10      0.0208      0.0208      -0.147
  R0019254             JUNCTION     0.035    0.072     0  02:10      0.0169      0.0368      -0.040
  R0019716             JUNCTION     0.051    0.475     0  02:12      0.0264       0.332      -0.068
  R0019946             JUNCTION     0.000    0.475     0  02:12           0       0.332       0.071
  R0013935             JUNCTION     0.034    0.034     0  02:10      0.0161      0.0161      -0.175
  R0019939             JUNCTION     0.014    0.046     0  02:10     0.00585       0.022       0.004
  R0019944             JUNCTION     0.032    0.591     0  02:12       0.015       0.425       0.008
  R0043703             JUNCTION     0.038    0.504     0  02:12      0.0184        0.35      -0.001
  R0019945             JUNCTION     0.000    0.577     0  02:12           0        0.41      -0.007
  R0039621             JUNCTION     0.000    0.007     0  02:09           0    0.000636       1.987
  R0019838             JUNCTION     0.067    0.067     0  02:10      0.0369      0.0375      -0.039
  R0039606             JUNCTION     0.000    0.119     0  02:11           0      0.0758       0.245
  R0019204             JUNCTION     0.000    0.000     0  00:00           0           0       0.000 ltr
  R0019205             JUNCTION     0.000    0.000     0  00:00           0           0       0.000 ltr
  R0019849             JUNCTION     0.000    0.102     0  02:10           0      0.0597       0.105
  R0019371             JUNCTION     0.000    0.000     0  00:00           0           0       0.000 ltr
  R0019718             JUNCTION     0.045    0.262     0  02:11      0.0226       0.183      -3.042
  R0021442             JUNCTION     0.050    0.097     0  02:10      0.0264      0.0599       0.139
  R0019247             JUNCTION     0.025    0.113     0  02:10      0.0117      0.0715      -0.246
  R0019719             JUNCTION     0.027    0.125     0  02:10      0.0123      0.0741      -0.049
  R0019767             JUNCTION     0.000    0.795     0  02:13           0       0.593      -0.007
  R0019768             JUNCTION     0.000    0.796     0  02:13           0       0.593       0.035
  R0021453             JUNCTION     0.031    0.031     0  02:10      0.0147      0.0147       0.283
  R0019839             JUNCTION     0.067    0.117     0  02:10      0.0365      0.0734      -0.079
  R0019717             JUNCTION     0.080    0.440     0  02:11      0.0459       0.309       1.129
  R0019252             JUNCTION     0.040    0.040     0  02:10      0.0199      0.0199      -0.122
  R0019721             JUNCTION     0.012    0.047     0  02:10     0.00515      0.0227       0.084
  R0019942             JUNCTION     0.000    0.068     0  02:10           0      0.0377       0.072
  R0019206             JUNCTION     0.000    0.000     0  00:00           0           0       0.000 ltr
  R0019840             JUNCTION     0.000    0.201     0  02:10           0       0.132       0.058
  R0043702             JUNCTION     0.067    0.258     0  02:10      0.0365       0.168      -0.027
  R0019723             JUNCTION     0.030    0.038     0  02:10      0.0138      0.0175      -0.281
  R0019724             JUNCTION     0.009    0.009     0  02:10     0.00365     0.00365      -0.294
  R0021433             JUNCTION     0.042    0.042     0  02:10      0.0207      0.0207      -0.404
  R0021435             JUNCTION     0.028    0.066     0  02:10      0.0127      0.0335       0.023
  R0019769             OUTFALL      0.000    0.796     0  02:13           0       0.593       0.000
  
  
  **********************
  Node Surcharge Summary
  **********************
  
  Surcharging occurs when water rises above the top of the highest conduit.
  ---------------------------------------------------------------------
                                               Max. Height   Min. Depth
                                   Hours       Above Crown    Below Rim
  Node                 Type      Surcharged         Meters       Meters
  ---------------------------------------------------------------------
  R0019466             JUNCTION        0.06          0.144        2.366
  R0019468             JUNCTION        0.05          0.109        2.321
  R0019849             JUNCTION        0.05          0.029        1.901
  R0021442             JUNCTION        0.09          0.305        1.445
  R0021433             JUNCTION        0.02          0.157        1.693
  R0021435             JUNCTION        0.06          0.271        1.539
  
  
  *********************
  Node Flooding Summary
  *********************
  
  No nodes were flooded.
  
  
  ***********************
  Outfall Loading Summary
  ***********************
  
  -----------------------------------------------------------
                         Flow       Avg       Max       Total
                         Freq      Flow      Flow      Volume
  Outfall Node           Pcnt       CMS       CMS    10^6 ltr
  -----------------------------------------------------------
  R0019769               3.93     0.055     0.796       0.593
  -----------------------------------------------------------
  System                 3.93     0.055     0.796       0.593
  
  
  ********************
  Link Flow Summary
  ********************
  
  -----------------------------------------------------------------------------
                                 Maximum  Time of Max   Maximum    Max/    Max/
                                  |Flow|   Occurrence   |Veloc|    Full    Full
  Link                 Type          CMS  days hr:min     m/sec    Flow   Depth
  -----------------------------------------------------------------------------
  H0014431             CONDUIT     0.070     0  02:10      1.00    1.30    1.00
  H0014433             CONDUIT     0.037     0  02:10      0.73    0.47    0.70
  H0014352             CONDUIT     0.800     0  02:13      2.57    0.33    0.49
  H0014373             CONDUIT     0.796     0  02:13      3.44    0.37    0.39
  H0017981             CONDUIT     0.063     0  02:11      1.09    1.78    0.76
  H0017755             CONDUIT     0.106     0  02:11      1.31    0.86    0.62
  H0017791             CONDUIT     0.081     0  02:10      0.61    0.12    0.26
  H0017357             CONDUIT     0.004     0  02:11      0.12    0.06    0.43
  H0018216             CONDUIT     0.064     0  02:10      0.95    1.16    0.92
  H0016792             CONDUIT     0.475     0  02:12      1.70    0.27    0.45
  H0019507             CONDUIT     0.033     0  02:10      0.73    0.45    0.67
  H0019998             CONDUIT     0.590     0  02:13      2.84    0.24    0.36
  H0019576             CONDUIT     0.507     0  02:12      2.07    0.34    0.41
  H0020087             CONDUIT     0.007     0  02:09      0.22    0.03    0.34
  H0020211             CONDUIT     0.485     0  02:12      1.67    1.21    0.47
  H0018982             CONDUIT     0.119     0  02:11      0.82    0.19    0.29
  H0018753             CONDUIT     0.037     0  02:09      0.63    0.53    1.00
  H0018845             CONDUIT     0.000     0  00:00      0.00    0.00    0.00
  H0018863             CONDUIT     0.038     0  02:10      0.65    0.89    1.00
  H0019156             CONDUIT     0.000     0  00:00      0.00    0.00    0.00
  H0018929             CONDUIT     0.235     0  02:11      1.08    0.20    0.38
  H0018440             CONDUIT     0.093     0  02:11      1.31    1.66    1.00
  H0018456             CONDUIT     0.106     0  02:11      1.32    0.65    0.61
  H0018968             CONDUIT     0.796     0  02:13      3.91    0.31    0.36
  H0022036             CONDUIT     0.030     0  02:10      0.58    0.02    0.15
  H0021806             CONDUIT     0.107     0  02:11      1.14    0.95    0.71
  H0022111             CONDUIT     0.057     0  02:10      0.73    0.41    0.43
  H0021440             CONDUIT     0.445     0  02:12      2.08    0.29    0.37
  H0021704             CONDUIT     0.267     0  02:12      1.23    0.51    0.38
  H0020521             CONDUIT     0.037     0  02:10      0.63    0.75    0.81
  H0020755             CONDUIT     0.041     0  02:10      0.63    0.45    0.55
  H0020530             CONDUIT     0.817     0  02:13      2.52    0.70    0.51
  H0020618             CONDUIT     0.576     0  02:12      2.68    0.36    0.37
  H0021163             CONDUIT     0.068     0  02:10      1.15    1.14    0.78
  H0020497             CONDUIT     0.000     0  00:00      0.00    0.00    0.59
  H0024325             CONDUIT     0.116     0  02:10      1.66    0.35    0.39
  H0023585             CONDUIT     0.257     0  02:10      2.31    0.59    0.55
  H0024098             CONDUIT     0.098     0  02:10      1.50    1.14    1.00
  H0024235             CONDUIT     0.124     0  02:11      1.30    0.51    0.49
  H0024282             CONDUIT     0.000     0  00:00      0.00    0.00    0.00
  H0024308             CONDUIT     0.796     0  02:13      4.37    0.23    0.33
  H0024498             CONDUIT     0.086     0  02:10      1.21    1.33    1.00
  H0026990             CONDUIT     0.036     0  02:10      0.75    0.27    0.42
  H0041650             CONDUIT     0.122     0  02:11      0.74    0.14    0.31
  H0041011             CONDUIT     0.065     0  02:10      1.11    0.65    0.89
  H0045103             CONDUIT     0.110     0  02:11      0.74    0.14    0.29
  H0045104             CONDUIT     0.795     0  02:13      3.66    0.28    0.37
  H0045105             CONDUIT     0.009     0  02:10      0.38    0.15    0.37
  H0045106             CONDUIT     0.201     0  02:10      2.28    0.27    0.46
  H0045107             CONDUIT     0.039     0  02:10      0.76    0.64    1.00
  H0045108             CONDUIT     0.057     0  02:10      0.81    1.03    1.00
  
  
  ***************************
  Flow Classification Summary
  ***************************
  
  -------------------------------------------------------------------------------------
                      Adjusted    ---------- Fraction of Time in Flow Class ---------- 
                       /Actual         Up    Down  Sub   Sup   Up    Down  Norm  Inlet 
  Conduit               Length    Dry  Dry   Dry   Crit  Crit  Crit  Crit  Ltd   Ctrl  
  -------------------------------------------------------------------------------------
  H0014431                1.00   0.03  0.00  0.00  0.97  0.00  0.00  0.00  0.97  0.00
  H0014433                1.00   0.03  0.00  0.00  0.97  0.00  0.00  0.00  0.97  0.00
  H0014352                1.00   0.03  0.00  0.00  0.96  0.02  0.00  0.00  0.97  0.00
  H0014373                1.00   0.03  0.00  0.00  0.94  0.03  0.00  0.00  0.92  0.00
  H0017981                1.00   0.03  0.00  0.00  0.00  0.00  0.00  0.97  0.00  0.00
  H0017755                1.00   0.03  0.00  0.00  0.00  0.00  0.00  0.97  0.00  0.00
  H0017791                1.00   0.03  0.00  0.00  0.97  0.00  0.00  0.00  0.97  0.00
  H0017357                1.00   0.03  0.97  0.00  0.00  0.00  0.00  0.00  0.97  0.00
  H0018216                1.00   0.03  0.93  0.00  0.04  0.00  0.00  0.00  0.97  0.00
  H0016792                1.00   0.03  0.93  0.00  0.05  0.00  0.00  0.00  0.97  0.00
  H0019507                1.00   0.03  0.00  0.00  0.97  0.00  0.00  0.00  0.97  0.00
  H0019998                1.00   0.03  0.00  0.00  0.94  0.03  0.00  0.00  0.05  0.00
  H0019576                1.00   0.03  0.00  0.00  0.96  0.01  0.00  0.00  0.05  0.00
  H0020087                1.00   0.03  0.96  0.00  0.01  0.00  0.00  0.00  0.97  0.00
  H0020211                1.00   0.03  0.00  0.00  0.97  0.00  0.00  0.00  0.92  0.00
  H0018982                1.00   0.03  0.00  0.00  0.97  0.00  0.00  0.00  0.95  0.00
  H0018753                1.00   0.03  0.00  0.00  0.97  0.00  0.00  0.00  0.97  0.00
  H0018845                1.00   1.00  0.00  0.00  0.00  0.00  0.00  0.00  0.00  0.00
  H0018863                1.00   0.03  0.00  0.00  0.97  0.00  0.00  0.00  0.97  0.00
  H0019156                1.00   1.00  0.00  0.00  0.00  0.00  0.00  0.00  0.00  0.00
  H0018929                1.00   0.03  0.93  0.00  0.04  0.00  0.00  0.00  0.97  0.00
  H0018440                1.00   0.03  0.00  0.00  0.97  0.00  0.00  0.00  0.97  0.00
  H0018456                1.00   0.03  0.00  0.00  0.97  0.00  0.00  0.00  0.97  0.00
  H0018968                1.00   0.03  0.00  0.00  0.93  0.04  0.00  0.00  0.94  0.00
  H0022036                1.00   0.03  0.00  0.00  0.01  0.00  0.00  0.97  0.01  0.00
  H0021806                1.00   0.03  0.93  0.00  0.04  0.00  0.00  0.00  0.97  0.00
  H0022111                1.00   0.03  0.00  0.00  0.97  0.00  0.00  0.00  0.00  0.00
  H0021440                1.00   0.03  0.00  0.00  0.96  0.02  0.00  0.00  0.02  0.00
  H0021704                1.00   0.03  0.00  0.00  0.00  0.00  0.00  0.97  0.00  0.00
  H0020521                1.00   0.03  0.00  0.00  0.97  0.00  0.00  0.00  0.97  0.00
  H0020755                1.00   0.03  0.94  0.00  0.03  0.00  0.00  0.00  0.97  0.00
  H0020530                1.00   0.03  0.00  0.00  0.96  0.02  0.00  0.00  0.00  0.00
  H0020618                1.00   0.03  0.00  0.00  0.95  0.02  0.00  0.00  0.93  0.00
  H0021163                1.00   0.03  0.00  0.00  0.97  0.00  0.00  0.00  0.94  0.00
  H0020497                1.20   0.03  0.97  0.00  0.00  0.00  0.00  0.00  0.00  0.00
  H0024325                1.00   0.03  0.00  0.00  0.95  0.02  0.00  0.00  0.95  0.00
  H0023585                1.00   0.03  0.00  0.00  0.00  0.00  0.00  0.97  0.00  0.00
  H0024098                1.00   0.03  0.93  0.00  0.04  0.00  0.00  0.00  0.97  0.00
  H0024235                1.00   0.03  0.00  0.00  0.00  0.00  0.00  0.97  0.00  0.00
  H0024282                1.00   1.00  0.00  0.00  0.00  0.00  0.00  0.00  0.00  0.00
  H0024308                1.00   0.03  0.00  0.00  0.92  0.05  0.00  0.00  0.01  0.00
  H0024498                1.00   0.03  0.00  0.00  0.00  0.00  0.00  0.97  0.00  0.00
  H0026990                1.00   0.03  0.00  0.00  0.97  0.00  0.00  0.00  0.97  0.00
  H0041650                1.00   0.96  0.01  0.00  0.03  0.00  0.00  0.00  0.97  0.00
  H0041011                1.00   0.03  0.00  0.00  0.97  0.00  0.00  0.00  0.97  0.00
  H0045103                1.00   0.03  0.00  0.00  0.97  0.00  0.00  0.00  0.95  0.00
  H0045104                1.00   0.03  0.00  0.00  0.93  0.04  0.00  0.00  0.05  0.00
  H0045105                1.00   0.03  0.00  0.00  0.97  0.00  0.00  0.00  0.97  0.00
  H0045106                1.00   0.03  0.00  0.00  0.95  0.02  0.00  0.00  0.97  0.00
  H0045107                1.00   0.03  0.00  0.00  0.97  0.00  0.00  0.00  0.97  0.00
  H0045108                1.00   0.03  0.00  0.00  0.97  0.00  0.00  0.00  0.97  0.00
  
  
  *************************
  Conduit Surcharge Summary
  *************************
  
  ----------------------------------------------------------------------------
                                                           Hours        Hours 
                         --------- Hours Full --------   Above Full   Capacity
  Conduit                Both Ends  Upstream  Dnstream   Normal Flow   Limited
  ----------------------------------------------------------------------------
  H0014431                    0.05      0.06      0.05      0.08         0.05
  H0017981                    0.01      0.01      0.01      0.09         0.01
  H0018216                    0.01      0.01      0.01      0.04         0.01
  H0020211                    0.01      0.01      0.01      0.05         0.01
  H0018753                    0.01      0.01      0.06      0.01         0.01
  H0018863                    0.01      0.01      0.05      0.01         0.01
  H0018440                    0.02      0.09      0.02      0.12         0.07
  H0021163                    0.01      0.01      0.01      0.03         0.01
  H0024098                    0.05      0.05      0.09      0.03         0.01
  H0024498                    0.01      0.05      0.01      0.09         0.01
  H0041011                    0.01      0.01      0.05      0.01         0.01
  H0045107                    0.02      0.02      0.06      0.01         0.01
  H0045108                    0.06      0.06      0.09      0.01         0.01
  

  Analysis begun on:  Fri Mar 22 15:56:42 2024
  Analysis ended on:  Fri Mar 22 15:56:50 2024
  Total elapsed time: 00:00:08