
  EPA STORM WATER MANAGEMENT MODEL - VERSION 5.2 (Build 5.2.4)
  PYSWMM TOOLKIT API - VERSION v1.0 (2023-11-27)
  ------------------------------------------------------------

  Gievenbeck_2022-05-19 13 50 00_hN10 82 
  
  ****************
  Analysis Options
  ****************
  Flow Units ............... CMS
  Process Models:
    Rainfall/Runoff ........ YES
    RDII ................... NO
    Snowmelt ............... NO
    Groundwater ............ NO
    Flow Routing ........... YES
    Ponding Allowed ........ NO
    Water Quality .......... NO
  Infiltration Method ...... HORTON
  Flow Routing Method ...... DYNWAVE
  Surcharge Method ......... SLOT
  Starting Date ............ 01/01/2024 00:00:00
  Ending Date .............. 01/04/2024 04:00:00
  Antecedent Dry Days ...... 14.0
  Report Time Step ......... 00:01:00
  Wet Time Step ............ 00:01:00
  Dry Time Step ............ 00:01:00
  Routing Time Step ........ 1.00 sec
  Variable Time Step ....... YES
  Maximum Trials ........... 8
  Number of Threads ........ 1
  Head Tolerance ........... 0.001500 m
  
  
  **************************        Volume         Depth
  Runoff Quantity Continuity     hectare-m            mm
  **************************     ---------       -------
  Total Precipitation ......         0.110        10.820
  Evaporation Loss .........         0.010         0.948
  Infiltration Loss ........         0.061         6.052
  Surface Runoff ...........         0.039         3.833
  Final Storage ............         0.000         0.000
  Continuity Error (%) .....        -0.120
  
  
  **************************        Volume        Volume
  Flow Routing Continuity        hectare-m      10^6 ltr
  **************************     ---------     ---------
  Dry Weather Inflow .......         0.000         0.000
  Wet Weather Inflow .......         0.039         0.388
  Groundwater Inflow .......         0.000         0.000
  RDII Inflow ..............         0.000         0.000
  External Inflow ..........         0.000         0.000
  External Outflow .........         0.039         0.389
  Flooding Loss ............         0.000         0.000
  Evaporation Loss .........         0.000         0.000
  Exfiltration Loss ........         0.000         0.000
  Initial Stored Volume ....         0.000         0.000
  Final Stored Volume ......         0.000         0.000
  Continuity Error (%) .....        -0.284
  
  
  *************************
  Highest Continuity Errors
  *************************
  Node R0019718 (-1.71%)
  
  
  ***************************
  Time-Step Critical Elements
  ***************************
  None
  
  
  ********************************
  Highest Flow Instability Indexes
  ********************************
  All links are stable.
  
  
  *********************************
  Most Frequent Nonconverging Nodes
  *********************************
  Convergence obtained at all time steps.
  
  
  *************************
  Routing Time Step Summary
  *************************
  Minimum Time Step           :     0.50 sec
  Average Time Step           :     1.00 sec
  Maximum Time Step           :     1.00 sec
  % of Time in Steady State   :     0.00
  Average Iterations per Step :     2.00
  % of Steps Not Converging   :     0.00
  Time Step Frequencies       :
      1.000 -  0.871 sec      :   100.00 %
      0.871 -  0.758 sec      :     0.00 %
      0.758 -  0.660 sec      :     0.00 %
      0.660 -  0.574 sec      :     0.00 %
      0.574 -  0.500 sec      :     0.00 %
  
  
  ***************************
  Subcatchment Runoff Summary
  ***************************
  
  ------------------------------------------------------------------------------------------------------------------------------
                            Total      Total      Total      Total     Imperv       Perv      Total       Total     Peak  Runoff
                           Precip      Runon       Evap      Infil     Runoff     Runoff     Runoff      Runoff   Runoff   Coeff
  Subcatchment                 mm         mm         mm         mm         mm         mm         mm    10^6 ltr      CMS
  ------------------------------------------------------------------------------------------------------------------------------
  EZG_368                   10.82       0.00       0.94       6.08       4.48       0.00       3.81        0.02     0.02   0.352
  EZG_392                   10.82       0.00       0.94       6.08       4.48       0.00       3.81        0.01     0.02   0.352
  EZG_352                   10.82       0.00       0.95       6.08       4.47       0.00       3.80        0.02     0.03   0.351
  EZG_372                   10.82       0.00       0.93       6.08       4.50       0.00       3.82        0.01     0.01   0.353
  EZG_416                   10.82       0.00       0.94       6.08       4.49       0.00       3.81        0.01     0.02   0.352
  EZG_388                   10.82       0.00       0.94       6.08       4.48       0.00       3.81        0.02     0.02   0.352
  EZG_394                   10.82       0.00       0.94       6.08       4.49       0.00       3.81        0.01     0.01   0.353
  EZG_400                   10.82       0.00       0.94       6.08       4.49       0.00       3.82        0.01     0.01   0.353
  EZG_390                   10.82       0.00       0.94       6.08       4.48       0.00       3.81        0.01     0.02   0.352
  EZG_350                   10.82       0.00       0.94       6.08       4.48       0.00       3.81        0.02     0.02   0.352
  EZG_370                   10.82       0.00       0.94       6.08       4.48       0.00       3.81        0.01     0.02   0.352
  EZG_398                   10.82       0.00       0.93       6.09       4.50       0.00       3.83        0.00     0.01   0.354
  EZG_382                   10.82       0.00       0.93       6.09       4.50       0.00       3.83        0.00     0.01   0.354
  EZG_374                   10.82       0.00       1.14       5.13       5.37       0.00       4.56        0.02     0.02   0.422
  EZG_412                   10.82       0.00       0.92       6.09       4.52       0.00       3.84        0.00     0.00   0.355
  EZG_344                   10.82       0.00       0.94       6.08       4.49       0.00       3.82        0.01     0.01   0.353
  EZG_376                   10.82       0.00       0.93       6.08       4.49       0.00       3.82        0.01     0.01   0.353
  EZG_356                   10.82       0.00       0.95       6.08       4.47       0.00       3.80        0.02     0.03   0.351
  EZG_386                   10.82       0.00       0.95       6.08       4.47       0.00       3.80        0.03     0.03   0.351
  EZG_380                   10.82       0.00       0.94       6.08       4.48       0.00       3.81        0.01     0.02   0.352
  EZG_378                   10.82       0.00       0.94       6.08       4.48       0.00       3.81        0.01     0.02   0.352
  EZG_414                   10.82       0.00       0.93       6.09       4.51       0.00       3.83        0.00     0.01   0.354
  EZG_402                   10.82       0.00       0.94       6.08       4.48       0.00       3.81        0.01     0.02   0.352
  EZG_358                   10.82       0.00       0.95       6.08       4.47       0.00       3.80        0.02     0.03   0.351
  EZG_364                   10.82       0.00       0.95       6.08       4.47       0.00       3.80        0.02     0.03   0.351
  EZG_410                   10.82       0.00       0.93       6.08       4.49       0.00       3.82        0.01     0.01   0.353
  EZG_366                   10.82       0.00       0.94       6.08       4.49       0.00       3.82        0.01     0.01   0.353
  EZG_18259                 10.82       0.00       0.94       6.08       4.49       0.00       3.82        0.01     0.01   0.353
  EZG_18258                 10.82       0.00       0.92       6.09       4.51       0.00       3.83        0.00     0.00   0.354
  EZG_346                   10.82       0.00       0.92       6.18       4.39       0.00       3.73        0.01     0.02   0.345
  EZG_348                   10.82       0.00       0.92       6.18       4.40       0.00       3.74        0.01     0.01   0.346
  
  
  ******************
  Node Depth Summary
  ******************
  
  ---------------------------------------------------------------------------------
                                 Average  Maximum  Maximum  Time of Max    Reported
                                   Depth    Depth      HGL   Occurrence   Max Depth
  Node                 Type       Meters   Meters   Meters  days hr:min      Meters
  ---------------------------------------------------------------------------------
  R0019466             JUNCTION     0.00     0.18    69.63     0  02:10        0.17
  R0019468             JUNCTION     0.00     0.18    69.49     0  02:11        0.18
  R0019831             JUNCTION     0.00     0.09    69.26     0  02:10        0.09
  R0019825             JUNCTION     0.00     0.15    68.99     0  02:10        0.15
  R0019843             JUNCTION     0.00     0.23    67.86     0  02:13        0.23
  R0019368             JUNCTION     0.00     0.34    67.13     0  02:13        0.34
  R0019369             JUNCTION     0.00     0.25    66.84     0  02:13        0.25
  R0019370             JUNCTION     0.00     0.21    66.11     0  02:14        0.21
  R0019345             JUNCTION     0.00     0.17    70.07     0  02:11        0.17
  R0019346             JUNCTION     0.00     0.15    69.95     0  02:11        0.15
  R0043600             JUNCTION     0.00     0.17    69.84     0  02:12        0.17
  R0019203             JUNCTION     0.00     0.19    69.73     0  02:12        0.19
  R0043594             JUNCTION     0.00     0.14    69.87     0  02:10        0.14
  R0021458             JUNCTION     0.00     0.18    69.83     0  02:11        0.18
  R0019202             JUNCTION     0.00     0.16    69.74     0  02:12        0.16
  R0019373             JUNCTION     0.00     0.10    69.77     0  02:10        0.10
  R0019254             JUNCTION     0.00     0.16    70.20     0  02:10        0.15
  R0019716             JUNCTION     0.00     0.21    69.22     0  02:13        0.21
  R0019946             JUNCTION     0.00     0.32    68.94     0  02:13        0.32
  R0013935             JUNCTION     0.00     0.09    68.92     0  02:10        0.09
  R0019939             JUNCTION     0.00     0.14    68.71     0  02:10        0.14
  R0019944             JUNCTION     0.00     0.19    68.47     0  02:13        0.19
  R0043703             JUNCTION     0.00     0.23    68.83     0  02:13        0.23
  R0019945             JUNCTION     0.00     0.24    68.64     0  02:13        0.24
  R0039621             JUNCTION     0.00     0.04    69.61     0  02:10        0.04
  R0019838             JUNCTION     0.00     0.14    69.60     0  02:10        0.14
  R0039606             JUNCTION     0.00     0.16    69.75     0  02:12        0.16
  R0019204             JUNCTION     0.00     0.00    69.91     0  00:00        0.00
  R0019205             JUNCTION     0.00     0.00    69.62     0  00:00        0.00
  R0019849             JUNCTION     0.00     0.17    68.69     0  02:11        0.17
  R0019371             JUNCTION     0.00     0.00    70.41     0  00:00        0.00
  R0019718             JUNCTION     0.00     0.26    69.68     0  02:12        0.26
  R0021442             JUNCTION     0.00     0.21    70.26     0  02:10        0.21
  R0019247             JUNCTION     0.00     0.20    70.08     0  02:11        0.19
  R0019719             JUNCTION     0.00     0.16    69.84     0  02:11        0.16
  R0019767             JUNCTION     0.00     0.23    64.96     0  02:14        0.23
  R0019768             JUNCTION     0.00     0.19    63.96     0  02:14        0.19
  R0021453             JUNCTION     0.00     0.06    70.01     0  02:10        0.06
  R0019839             JUNCTION     0.00     0.13    69.52     0  02:10        0.13
  R0019717             JUNCTION     0.00     0.21    69.55     0  02:12        0.21
  R0019252             JUNCTION     0.00     0.12    70.31     0  02:10        0.12
  R0019721             JUNCTION     0.00     0.12    69.99     0  02:10        0.12
  R0019942             JUNCTION     0.00     0.12    68.77     0  02:10        0.12
  R0019206             JUNCTION     0.00     0.00    69.07     0  00:00        0.00
  R0019840             JUNCTION     0.00     0.12    69.09     0  02:11        0.12
  R0043702             JUNCTION     0.00     0.18    68.88     0  02:11        0.18
  R0019723             JUNCTION     0.00     0.09    70.17     0  02:10        0.09
  R0019724             JUNCTION     0.00     0.05    70.21     0  02:10        0.05
  R0021433             JUNCTION     0.00     0.11    70.50     0  02:10        0.11
  R0021435             JUNCTION     0.00     0.15    70.33     0  02:10        0.15
  R0019769             OUTFALL      0.00     0.19    63.57     0  02:14        0.19
  
  
  *******************
  Node Inflow Summary
  *******************
  
  -------------------------------------------------------------------------------------------------
                                  Maximum  Maximum                  Lateral       Total        Flow
                                  Lateral    Total  Time of Max      Inflow      Inflow     Balance
                                   Inflow   Inflow   Occurrence      Volume      Volume       Error
  Node                 Type           CMS      CMS  days hr:min    10^6 ltr    10^6 ltr     Percent
  -------------------------------------------------------------------------------------------------
  R0019466             JUNCTION     0.021    0.037     0  02:10      0.0157      0.0294      -0.046
  R0019468             JUNCTION     0.013    0.047     0  02:10     0.00914      0.0386       0.044
  R0019831             JUNCTION     0.017    0.017     0  02:10      0.0123      0.0123      -0.177
  R0019825             JUNCTION     0.017    0.033     0  02:10      0.0124      0.0247      -0.027
  R0019843             JUNCTION     0.000    0.352     0  02:13           0       0.389      -0.027
  R0019368             JUNCTION     0.000    0.352     0  02:13           0       0.389       0.000
  R0019369             JUNCTION     0.000    0.350     0  02:13           0       0.389       0.001
  R0019370             JUNCTION     0.000    0.350     0  02:13           0       0.389       0.009
  R0019345             JUNCTION     0.000    0.029     0  02:10           0      0.0242       0.192
  R0019346             JUNCTION     0.002    0.049     0  02:11     0.00153      0.0405       0.071
  R0043600             JUNCTION     0.000    0.052     0  02:11           0      0.0469       0.224
  R0019203             JUNCTION     0.005    0.109     0  02:12     0.00339       0.105      -0.013
  R0043594             JUNCTION     0.027    0.040     0  02:10      0.0225      0.0321      -0.473
  R0021458             JUNCTION     0.022    0.056     0  02:10      0.0175      0.0497      -0.028
  R0019202             JUNCTION     0.008    0.055     0  02:11     0.00517      0.0549      -0.039
  R0019373             JUNCTION     0.018    0.018     0  02:10      0.0137      0.0137      -0.083
  R0019254             JUNCTION     0.015    0.032     0  02:10      0.0111      0.0242      -0.099
  R0019716             JUNCTION     0.022    0.205     0  02:12      0.0173       0.217      -0.064
  R0019946             JUNCTION     0.000    0.204     0  02:13           0       0.217       0.078
  R0013935             JUNCTION     0.015    0.015     0  02:10      0.0106      0.0106      -0.202
  R0019939             JUNCTION     0.006    0.020     0  02:10     0.00379      0.0144      -0.019
  R0019944             JUNCTION     0.014    0.255     0  02:13     0.00983       0.278      -0.004
  R0043703             JUNCTION     0.016    0.214     0  02:13      0.0121       0.229      -0.006
  R0019945             JUNCTION     0.000    0.248     0  02:13           0       0.268       0.005
  R0039621             JUNCTION     0.000    0.002     0  02:09           0    0.000171       2.756
  R0019838             JUNCTION     0.029    0.029     0  02:10      0.0244      0.0245      -0.025
  R0039606             JUNCTION     0.000    0.053     0  02:11           0      0.0498       0.226
  R0019204             JUNCTION     0.000    0.000     0  00:00           0           0       0.000 ltr
  R0019205             JUNCTION     0.000    0.000     0  00:00           0           0       0.000 ltr
  R0019849             JUNCTION     0.000    0.049     0  02:10           0      0.0391       0.037
  R0019371             JUNCTION     0.000    0.000     0  00:00           0           0       0.000 ltr
  R0019718             JUNCTION     0.020    0.121     0  02:12      0.0148        0.12      -1.683
  R0021442             JUNCTION     0.021    0.047     0  02:10      0.0173      0.0392      -0.039
  R0019247             JUNCTION     0.011    0.054     0  02:10     0.00761      0.0468      -0.188
  R0019719             JUNCTION     0.012    0.056     0  02:11     0.00802      0.0485      -0.034
  R0019767             JUNCTION     0.000    0.350     0  02:14           0       0.389      -0.002
  R0019768             JUNCTION     0.000    0.350     0  02:14           0       0.389       0.026
  R0021453             JUNCTION     0.014    0.014     0  02:10     0.00965     0.00965       0.447
  R0019839             JUNCTION     0.029    0.052     0  02:10      0.0241      0.0484      -0.075
  R0019717             JUNCTION     0.035    0.191     0  02:12      0.0303       0.201       0.507
  R0019252             JUNCTION     0.018    0.018     0  02:10      0.0131      0.0131      -0.189
  R0019721             JUNCTION     0.005    0.021     0  02:10     0.00333      0.0148       0.044
  R0019942             JUNCTION     0.000    0.031     0  02:10           0      0.0248       0.114
  R0019206             JUNCTION     0.000    0.000     0  00:00           0           0       0.000 ltr
  R0019840             JUNCTION     0.000    0.094     0  02:11           0       0.087       0.045
  R0043702             JUNCTION     0.029    0.118     0  02:10      0.0241       0.111      -0.014
  R0019723             JUNCTION     0.013    0.017     0  02:10     0.00907      0.0114      -0.245
  R0019724             JUNCTION     0.004    0.004     0  02:10     0.00235     0.00235      -0.264
  R0021433             JUNCTION     0.018    0.018     0  02:10      0.0136      0.0136      -0.196
  R0021435             JUNCTION     0.012    0.029     0  02:10     0.00832      0.0219       0.095
  R0019769             OUTFALL      0.000    0.350     0  02:14           0       0.389       0.000
  
  
  **********************
  Node Surcharge Summary
  **********************
  
  No nodes were surcharged.
  
  
  *********************
  Node Flooding Summary
  *********************
  
  No nodes were flooded.
  
  
  ***********************
  Outfall Loading Summary
  ***********************
  
  -----------------------------------------------------------
                         Flow       Avg       Max       Total
                         Freq      Flow      Flow      Volume
  Outfall Node           Pcnt       CMS       CMS    10^6 ltr
  -----------------------------------------------------------
  R0019769               4.44     0.032     0.350       0.389
  -----------------------------------------------------------
  System                 4.44     0.032     0.350       0.389
  
  
  ********************
  Link Flow Summary
  ********************
  
  -----------------------------------------------------------------------------
                                 Maximum  Time of Max   Maximum    Max/    Max/
                                  |Flow|   Occurrence   |Veloc|    Full    Full
  Link                 Type          CMS  days hr:min     m/sec    Flow   Depth
  -----------------------------------------------------------------------------
  H0014431             CONDUIT     0.035     0  02:10      0.81    0.66    0.60
  H0014433             CONDUIT     0.016     0  02:10      0.60    0.21    0.41
  H0014352             CONDUIT     0.352     0  02:13      2.06    0.14    0.32
  H0014373             CONDUIT     0.350     0  02:13      2.71    0.16    0.26
  H0017981             CONDUIT     0.029     0  02:11      0.83    0.81    0.49
  H0017755             CONDUIT     0.051     0  02:12      1.03    0.42    0.42
  H0017791             CONDUIT     0.036     0  02:10      0.49    0.05    0.17
  H0017357             CONDUIT     0.000     0  00:00      0.00    0.00    0.17
  H0018216             CONDUIT     0.029     0  02:10      0.77    0.54    0.54
  H0016792             CONDUIT     0.204     0  02:13      1.31    0.12    0.29
  H0019507             CONDUIT     0.014     0  02:10      0.58    0.20    0.38
  H0019998             CONDUIT     0.254     0  02:13      2.23    0.10    0.24
  H0019576             CONDUIT     0.215     0  02:13      1.62    0.14    0.26
  H0020087             CONDUIT     0.002     0  02:09      0.11    0.01    0.19
  H0020211             CONDUIT     0.206     0  02:13      1.25    0.51    0.31
  H0018982             CONDUIT     0.053     0  02:11      0.65    0.08    0.19
  H0018753             CONDUIT     0.017     0  02:10      0.54    0.24    0.46
  H0018845             CONDUIT     0.000     0  00:00      0.00    0.00    0.00
  H0018863             CONDUIT     0.018     0  02:10      0.53    0.43    0.51
  H0019156             CONDUIT     0.000     0  00:00      0.00    0.00    0.00
  H0018929             CONDUIT     0.109     0  02:12      0.90    0.09    0.25
  H0018440             CONDUIT     0.045     0  02:10      0.91    0.81    0.67
  H0018456             CONDUIT     0.048     0  02:11      1.07    0.29    0.39
  H0018968             CONDUIT     0.350     0  02:14      3.09    0.13    0.23
  H0022036             CONDUIT     0.013     0  02:10      0.50    0.01    0.10
  H0021806             CONDUIT     0.052     0  02:11      0.94    0.46    0.46
  H0022111             CONDUIT     0.025     0  02:10      0.57    0.18    0.28
  H0021440             CONDUIT     0.192     0  02:12      1.69    0.12    0.23
  H0021704             CONDUIT     0.118     0  02:13      0.94    0.22    0.25
  H0020521             CONDUIT     0.017     0  02:10      0.52    0.33    0.46
  H0020755             CONDUIT     0.019     0  02:10      0.52    0.21    0.34
  H0020530             CONDUIT     0.350     0  02:13      1.95    0.30    0.33
  H0020618             CONDUIT     0.248     0  02:13      2.11    0.15    0.24
  H0021163             CONDUIT     0.031     0  02:10      1.02    0.52    0.45
  H0020497             CONDUIT     0.000     0  00:00      0.00    0.00    0.38
  H0024325             CONDUIT     0.051     0  02:10      1.31    0.15    0.25
  H0023585             CONDUIT     0.117     0  02:11      1.88    0.27    0.35
  H0024098             CONDUIT     0.048     0  02:11      1.19    0.56    0.63
  H0024235             CONDUIT     0.055     0  02:11      1.03    0.23    0.32
  H0024282             CONDUIT     0.000     0  00:00      0.00    0.00    0.00
  H0024308             CONDUIT     0.350     0  02:14      3.46    0.10    0.22
  H0024498             CONDUIT     0.044     0  02:11      1.05    0.68    0.57
  H0026990             CONDUIT     0.016     0  02:10      0.60    0.12    0.27
  H0041650             CONDUIT     0.055     0  02:12      0.64    0.06    0.20
  H0041011             CONDUIT     0.031     0  02:10      0.95    0.31    0.47
  H0045103             CONDUIT     0.051     0  02:12      0.65    0.06    0.18
  H0045104             CONDUIT     0.350     0  02:14      2.89    0.12    0.25
  H0045105             CONDUIT     0.004     0  02:10      0.30    0.06    0.24
  H0045106             CONDUIT     0.094     0  02:11      1.92    0.13    0.30
  H0045107             CONDUIT     0.017     0  02:10      0.61    0.29    0.43
  H0045108             CONDUIT     0.027     0  02:10      0.62    0.48    0.59
  
  
  ***************************
  Flow Classification Summary
  ***************************
  
  -------------------------------------------------------------------------------------
                      Adjusted    ---------- Fraction of Time in Flow Class ---------- 
                       /Actual         Up    Down  Sub   Sup   Up    Down  Norm  Inlet 
  Conduit               Length    Dry  Dry   Dry   Crit  Crit  Crit  Crit  Ltd   Ctrl  
  -------------------------------------------------------------------------------------
  H0014431                1.00   0.03  0.00  0.00  0.97  0.00  0.00  0.00  0.97  0.00
  H0014433                1.00   0.03  0.00  0.00  0.97  0.00  0.00  0.00  0.97  0.00
  H0014352                1.00   0.03  0.00  0.00  0.95  0.02  0.00  0.00  0.97  0.00
  H0014373                1.00   0.03  0.00  0.00  0.93  0.04  0.00  0.00  0.92  0.00
  H0017981                1.00   0.03  0.00  0.00  0.00  0.00  0.00  0.97  0.00  0.00
  H0017755                1.00   0.03  0.00  0.00  0.00  0.00  0.00  0.97  0.00  0.00
  H0017791                1.00   0.03  0.00  0.00  0.97  0.00  0.00  0.00  0.97  0.00
  H0017357                1.00   0.03  0.97  0.00  0.00  0.00  0.00  0.00  0.00  0.00
  H0018216                1.00   0.03  0.93  0.00  0.04  0.00  0.00  0.00  0.97  0.00
  H0016792                1.00   0.03  0.92  0.00  0.05  0.00  0.00  0.00  0.97  0.00
  H0019507                1.00   0.03  0.00  0.00  0.97  0.00  0.00  0.00  0.97  0.00
  H0019998                1.00   0.03  0.00  0.00  0.94  0.04  0.00  0.00  0.05  0.00
  H0019576                1.00   0.03  0.00  0.00  0.96  0.02  0.00  0.00  0.05  0.00
  H0020087                1.00   0.03  0.96  0.00  0.01  0.00  0.00  0.00  0.97  0.00
  H0020211                1.00   0.03  0.00  0.00  0.97  0.00  0.00  0.00  0.92  0.00
  H0018982                1.00   0.03  0.00  0.00  0.97  0.00  0.00  0.00  0.94  0.00
  H0018753                1.00   0.03  0.00  0.00  0.97  0.00  0.00  0.00  0.97  0.00
  H0018845                1.00   1.00  0.00  0.00  0.00  0.00  0.00  0.00  0.00  0.00
  H0018863                1.00   0.03  0.00  0.00  0.97  0.00  0.00  0.00  0.97  0.00
  H0019156                1.00   1.00  0.00  0.00  0.00  0.00  0.00  0.00  0.00  0.00
  H0018929                1.00   0.03  0.93  0.00  0.05  0.00  0.00  0.00  0.97  0.00
  H0018440                1.00   0.03  0.00  0.00  0.97  0.00  0.00  0.00  0.97  0.00
  H0018456                1.00   0.03  0.00  0.00  0.97  0.00  0.00  0.00  0.97  0.00
  H0018968                1.00   0.03  0.92  0.00  0.02  0.04  0.00  0.00  0.94  0.00
  H0022036                1.00   0.03  0.00  0.00  0.01  0.00  0.00  0.96  0.01  0.00
  H0021806                1.00   0.03  0.93  0.00  0.05  0.00  0.00  0.00  0.96  0.00
  H0022111                1.00   0.03  0.00  0.00  0.97  0.00  0.00  0.00  0.00  0.00
  H0021440                1.00   0.03  0.00  0.00  0.95  0.02  0.00  0.00  0.02  0.00
  H0021704                1.00   0.03  0.00  0.00  0.00  0.00  0.00  0.97  0.00  0.00
  H0020521                1.00   0.03  0.00  0.00  0.97  0.00  0.00  0.00  0.97  0.00
  H0020755                1.00   0.03  0.93  0.00  0.04  0.00  0.00  0.00  0.97  0.00
  H0020530                1.00   0.03  0.00  0.00  0.95  0.02  0.00  0.00  0.00  0.00
  H0020618                1.00   0.03  0.00  0.00  0.94  0.03  0.00  0.00  0.93  0.00
  H0021163                1.00   0.03  0.00  0.00  0.97  0.00  0.00  0.00  0.94  0.00
  H0020497                1.20   0.03  0.97  0.00  0.00  0.00  0.00  0.00  0.00  0.00
  H0024325                1.00   0.03  0.00  0.00  0.95  0.02  0.00  0.00  0.94  0.00
  H0023585                1.00   0.03  0.00  0.00  0.00  0.00  0.00  0.97  0.00  0.00
  H0024098                1.00   0.03  0.93  0.00  0.04  0.00  0.00  0.00  0.97  0.00
  H0024235                1.00   0.03  0.00  0.00  0.00  0.00  0.00  0.97  0.00  0.00
  H0024282                1.00   1.00  0.00  0.00  0.00  0.00  0.00  0.00  0.00  0.00
  H0024308                1.00   0.03  0.00  0.00  0.92  0.05  0.00  0.00  0.01  0.00
  H0024498                1.00   0.03  0.00  0.00  0.00  0.00  0.00  0.97  0.00  0.00
  H0026990                1.00   0.03  0.00  0.00  0.97  0.00  0.00  0.00  0.97  0.00
  H0041650                1.00   0.95  0.01  0.00  0.04  0.00  0.00  0.00  0.97  0.00
  H0041011                1.00   0.03  0.00  0.00  0.97  0.00  0.00  0.00  0.97  0.00
  H0045103                1.00   0.03  0.00  0.00  0.97  0.00  0.00  0.00  0.95  0.00
  H0045104                1.00   0.03  0.00  0.00  0.93  0.04  0.00  0.00  0.05  0.00
  H0045105                1.00   0.03  0.00  0.00  0.97  0.00  0.00  0.00  0.97  0.00
  H0045106                1.00   0.03  0.93  0.00  0.02  0.03  0.00  0.00  0.97  0.00
  H0045107                1.00   0.03  0.00  0.00  0.97  0.00  0.00  0.00  0.97  0.00
  H0045108                1.00   0.03  0.00  0.00  0.97  0.00  0.00  0.00  0.97  0.00
  
  
  *************************
  Conduit Surcharge Summary
  *************************
  
  No conduits were surcharged.
  

  Analysis begun on:  Fri Mar 22 15:55:36 2024
  Analysis ended on:  Fri Mar 22 15:55:48 2024
  Total elapsed time: 00:00:12