
  EPA STORM WATER MANAGEMENT MODEL - VERSION 5.2 (Build 5.2.4)
  PYSWMM TOOLKIT API - VERSION v1.0 (2023-11-27)
  ------------------------------------------------------------

  Gievenbeck_e2_T100D4320 
  
  ****************
  Analysis Options
  ****************
  Flow Units ............... CMS
  Process Models:
    Rainfall/Runoff ........ YES
    RDII ................... NO
    Snowmelt ............... NO
    Groundwater ............ NO
    Flow Routing ........... YES
    Ponding Allowed ........ NO
    Water Quality .......... NO
  Infiltration Method ...... HORTON
  Flow Routing Method ...... DYNWAVE
  Surcharge Method ......... SLOT
  Starting Date ............ 01/01/2024 00:00:00
  Ending Date .............. 01/04/2024 04:00:00
  Antecedent Dry Days ...... 14.0
  Report Time Step ......... 00:01:00
  Wet Time Step ............ 00:01:00
  Dry Time Step ............ 00:01:00
  Routing Time Step ........ 1.00 sec
  Variable Time Step ....... YES
  Maximum Trials ........... 8
  Number of Threads ........ 1
  Head Tolerance ........... 0.001500 m
  
  
  **************************        Volume         Depth
  Runoff Quantity Continuity     hectare-m            mm
  **************************     ---------       -------
  Total Precipitation ......         1.348       133.180
  Evaporation Loss .........         0.001         0.060
  Infiltration Loss ........         0.621        61.327
  Surface Runoff ...........         0.719        70.998
  Final Storage ............         0.009         0.883
  Continuity Error (%) .....        -0.066
  
  
  **************************        Volume        Volume
  Flow Routing Continuity        hectare-m      10^6 ltr
  **************************     ---------     ---------
  Dry Weather Inflow .......         0.000         0.000
  Wet Weather Inflow .......         0.719         7.187
  Groundwater Inflow .......         0.000         0.000
  RDII Inflow ..............         0.000         0.000
  External Inflow ..........         0.000         0.000
  External Outflow .........         0.670         6.696
  Flooding Loss ............         0.050         0.500
  Evaporation Loss .........         0.000         0.000
  Exfiltration Loss ........         0.000         0.000
  Initial Stored Volume ....         0.000         0.000
  Final Stored Volume ......         0.000         0.000
  Continuity Error (%) .....        -0.127
  
  
  *************************
  Highest Continuity Errors
  *************************
  Node R0019205 (-13.66%)
  Node R0019206 (2.04%)
  
  
  ***************************
  Time-Step Critical Elements
  ***************************
  None
  
  
  ********************************
  Highest Flow Instability Indexes
  ********************************
  All links are stable.
  
  
  *********************************
  Most Frequent Nonconverging Nodes
  *********************************
  Convergence obtained at all time steps.
  
  
  *************************
  Routing Time Step Summary
  *************************
  Minimum Time Step           :     0.26 sec
  Average Time Step           :     1.00 sec
  Maximum Time Step           :     1.00 sec
  % of Time in Steady State   :     0.00
  Average Iterations per Step :     2.00
  % of Steps Not Converging   :     0.00
  Time Step Frequencies       :
      1.000 -  0.871 sec      :    99.98 %
      0.871 -  0.758 sec      :     0.01 %
      0.758 -  0.660 sec      :     0.00 %
      0.660 -  0.574 sec      :     0.00 %
      0.574 -  0.500 sec      :     0.00 %
  
  
  ***************************
  Subcatchment Runoff Summary
  ***************************
  
  ------------------------------------------------------------------------------------------------------------------------------
                            Total      Total      Total      Total     Imperv       Perv      Total       Total     Peak  Runoff
                           Precip      Runon       Evap      Infil     Runoff     Runoff     Runoff      Runoff   Runoff   Coeff
  Subcatchment                 mm         mm         mm         mm         mm         mm         mm    10^6 ltr      CMS
  ------------------------------------------------------------------------------------------------------------------------------
  EZG_368                  133.18       0.00       0.06      61.68      65.71      14.79      70.65        0.29     0.22   0.530
  EZG_392                  133.18       0.00       0.06      61.48      65.72      15.00      70.86        0.23     0.18   0.532
  EZG_352                  133.18       0.00       0.06      61.99      65.70      14.47      70.32        0.42     0.31   0.528
  EZG_372                  133.18       0.00       0.06      60.85      65.74      15.64      71.52        0.10     0.08   0.537
  EZG_416                  133.18       0.00       0.06      61.39      65.72      15.08      70.95        0.21     0.16   0.533
  EZG_388                  133.18       0.00       0.06      61.76      65.71      14.71      70.56        0.32     0.24   0.530
  EZG_394                  133.18       0.00       0.06      61.35      65.72      15.12      70.99        0.20     0.16   0.533
  EZG_400                  133.18       0.00       0.06      61.30      65.73      15.18      71.05        0.18     0.15   0.533
  EZG_390                  133.18       0.00       0.06      61.46      65.72      15.02      70.88        0.22     0.18   0.532
  EZG_350                  133.18       0.00       0.06      61.77      65.71      14.70      70.56        0.32     0.25   0.530
  EZG_370                  133.18       0.00       0.06      61.56      65.72      14.91      70.77        0.25     0.20   0.531
  EZG_398                  133.18       0.00       0.06      60.65      65.75      15.84      71.73        0.07     0.06   0.539
  EZG_382                  133.18       0.00       0.06      60.59      65.75      15.91      71.80        0.06     0.05   0.539
  EZG_374                  133.18       0.00       0.07      51.62      78.85      13.50      80.52        0.31     0.22   0.605
  EZG_412                  133.18       0.00       0.06      60.18      65.77      16.33      72.24        0.03     0.03   0.542
  EZG_344                  133.18       0.00       0.06      61.28      65.73      15.19      71.06        0.18     0.14   0.534
  EZG_376                  133.18       0.00       0.06      61.11      65.73      15.37      71.24        0.14     0.12   0.535
  EZG_356                  133.18       0.00       0.06      62.07      65.70      14.40      70.24        0.45     0.33   0.527
  EZG_386                  133.18       0.00       0.06      62.28      65.70      14.18      70.02        0.56     0.40   0.526
  EZG_380                  133.18       0.00       0.06      61.63      65.72      14.84      70.70        0.28     0.21   0.531
  EZG_378                  133.18       0.00       0.06      61.52      65.72      14.95      70.81        0.24     0.19   0.532
  EZG_414                  133.18       0.00       0.06      60.58      65.75      15.91      71.81        0.06     0.05   0.539
  EZG_402                  133.18       0.00       0.06      61.48      65.72      15.00      70.86        0.23     0.18   0.532
  EZG_358                  133.18       0.00       0.06      62.06      65.70      14.41      70.25        0.44     0.33   0.528
  EZG_364                  133.18       0.00       0.06      62.06      65.70      14.41      70.25        0.45     0.33   0.528
  EZG_410                  133.18       0.00       0.06      61.15      65.73      15.33      71.21        0.15     0.12   0.535
  EZG_366                  133.18       0.00       0.06      61.24      65.73      15.24      71.10        0.17     0.14   0.534
  EZG_18259                133.18       0.00       0.06      61.24      65.73      15.24      71.11        0.17     0.14   0.534
  EZG_18258                133.18       0.00       0.06      60.39      65.76      16.11      72.01        0.04     0.04   0.541
  EZG_346                  133.18       0.00       0.06      62.57      64.40      15.03      69.78        0.25     0.20   0.524
  EZG_348                  133.18       0.00       0.06      62.18      64.42      15.43      70.19        0.16     0.13   0.527
  
  
  ******************
  Node Depth Summary
  ******************
  
  ---------------------------------------------------------------------------------
                                 Average  Maximum  Maximum  Time of Max    Reported
                                   Depth    Depth      HGL   Occurrence   Max Depth
  Node                 Type       Meters   Meters   Meters  days hr:min      Meters
  ---------------------------------------------------------------------------------
  R0019466             JUNCTION     0.03     2.81    72.26     1  02:02        2.81
  R0019468             JUNCTION     0.03     2.73    72.04     1  02:02        2.73
  R0019831             JUNCTION     0.02     1.66    70.83     1  02:01        1.66
  R0019825             JUNCTION     0.03     1.50    70.34     1  02:00        1.50
  R0019843             JUNCTION     0.05     2.17    69.80     1  02:04        2.13
  R0019368             JUNCTION     0.07     1.95    68.74     1  02:04        1.95
  R0019369             JUNCTION     0.05     1.31    67.90     1  02:04        1.25
  R0019370             JUNCTION     0.04     0.69    66.59     1  02:04        0.68
  R0019345             JUNCTION     0.04     2.05    71.95     1  02:04        2.05
  R0019346             JUNCTION     0.03     2.14    71.94     1  02:04        2.08
  R0043600             JUNCTION     0.03     2.90    72.57     1  02:04        2.39
  R0019203             JUNCTION     0.04     2.83    72.37     1  02:04        2.65
  R0043594             JUNCTION     0.03     2.75    72.48     1  02:03        2.66
  R0021458             JUNCTION     0.04     2.85    72.50     1  02:04        2.71
  R0019202             JUNCTION     0.03     2.88    72.46     1  02:04        2.67
  R0019373             JUNCTION     0.02     2.80    72.47     1  02:04        2.80
  R0019254             JUNCTION     0.03     2.13    72.17     1  02:02        2.13
  R0019716             JUNCTION     0.04     2.58    71.59     1  02:04        2.53
  R0019946             JUNCTION     0.09     2.42    71.04     1  02:04        2.42
  R0013935             JUNCTION     0.02     1.62    70.45     1  02:01        1.62
  R0019939             JUNCTION     0.03     1.92    70.49     1  02:04        1.91
  R0019944             JUNCTION     0.04     1.98    70.26     1  02:04        1.95
  R0043703             JUNCTION     0.05     2.16    70.76     1  02:04        2.11
  R0019945             JUNCTION     0.05     2.05    70.45     1  02:04        2.00
  R0039621             JUNCTION     0.00     1.56    71.13     1  02:02        1.56
  R0019838             JUNCTION     0.03     1.80    71.26     1  02:02        1.80
  R0039606             JUNCTION     0.03     2.89    72.48     1  02:04        2.67
  R0019204             JUNCTION     0.00     0.00    69.91     0  00:00        0.00
  R0019205             JUNCTION     0.00     0.15    69.77     1  02:05        0.14
  R0019849             JUNCTION     0.03     1.96    70.48     1  02:04        1.88
  R0019371             JUNCTION     0.00     0.00    70.41     0  00:00        0.00
  R0019718             JUNCTION     0.07     2.87    72.29     1  02:04        2.71
  R0021442             JUNCTION     0.04     2.05    72.10     1  02:00        2.05
  R0019247             JUNCTION     0.04     2.26    72.14     1  02:04        2.26
  R0019719             JUNCTION     0.03     2.30    71.98     1  02:04        2.23
  R0019767             JUNCTION     0.05     0.73    65.46     1  02:04        0.73
  R0019768             JUNCTION     0.04     0.59    64.36     1  02:04        0.58
  R0021453             JUNCTION     0.01     2.40    72.35     1  02:03        2.40
  R0019839             JUNCTION     0.03     2.05    71.44     1  02:02        1.97
  R0019717             JUNCTION     0.04     2.67    72.01     1  02:04        2.60
  R0019252             JUNCTION     0.02     1.94    72.13     1  02:01        1.94
  R0019721             JUNCTION     0.02     1.96    71.83     1  02:04        1.96
  R0019942             JUNCTION     0.02     1.89    70.54     1  02:04        1.68
  R0019206             JUNCTION     0.00     0.88    69.95     1  02:04        0.62
  R0019840             JUNCTION     0.03     2.34    71.31     1  02:04        2.28
  R0043702             JUNCTION     0.04     2.57    71.27     1  02:04        2.51
  R0019723             JUNCTION     0.02     1.72    71.80     1  02:03        1.72
  R0019724             JUNCTION     0.01     1.71    71.87     1  02:03        1.68
  R0021433             JUNCTION     0.02     2.15    72.54     1  02:00        2.15
  R0021435             JUNCTION     0.03     2.11    72.29     1  02:00        2.11
  R0019769             OUTFALL      0.04     0.59    63.97     1  02:04        0.58
  
  
  *******************
  Node Inflow Summary
  *******************
  
  -------------------------------------------------------------------------------------------------
                                  Maximum  Maximum                  Lateral       Total        Flow
                                  Lateral    Total  Time of Max      Inflow      Inflow     Balance
                                   Inflow   Inflow   Occurrence      Volume      Volume       Error
  Node                 Type           CMS      CMS  days hr:min    10^6 ltr    10^6 ltr     Percent
  -------------------------------------------------------------------------------------------------
  R0019466             JUNCTION     0.224    0.300     1  02:05       0.292       0.478       0.006
  R0019468             JUNCTION     0.137    0.212     1  02:05        0.17       0.606      -0.002
  R0019831             JUNCTION     0.180    0.180     1  02:05       0.229       0.229       0.013
  R0019825             JUNCTION     0.181    0.286     1  02:05        0.23       0.446       0.012
  R0019843             JUNCTION     0.000    2.781     1  02:04           0        6.71      -0.022
  R0019368             JUNCTION     0.000    2.740     1  02:04           0        6.71      -0.016
  R0019369             JUNCTION     0.000    2.699     1  02:04           0         6.7      -0.008
  R0019370             JUNCTION     0.000    2.626     1  02:04           0         6.7       0.002
  R0019345             JUNCTION     0.000    0.163     1  02:01           0       0.392       0.010
  R0019346             JUNCTION     0.026    0.326     1  02:02      0.0288       0.669       0.004
  R0043600             JUNCTION     0.000    0.230     1  02:04           0       0.723      -0.017
  R0019203             JUNCTION     0.055    0.975     1  02:05      0.0635        1.88      -0.038
  R0043594             JUNCTION     0.307    0.826     1  02:03       0.415       0.603      -0.087
  R0021458             JUNCTION     0.246    0.719     1  02:04       0.324       0.927      -0.082
  R0019202             JUNCTION     0.082    0.882     1  02:04      0.0968         1.1      -0.140
  R0019373             JUNCTION     0.198    0.235     1  02:02       0.254       0.268       0.387
  R0019254             JUNCTION     0.164    0.180     1  02:01       0.207       0.403       0.008
  R0019716             JUNCTION     0.244    1.938     1  02:04       0.322        3.85      -0.010
  R0019946             JUNCTION     0.000    1.947     1  02:04           0        3.85      -0.008
  R0013935             JUNCTION     0.157    0.158     1  02:05       0.197       0.197       0.006
  R0019939             JUNCTION     0.061    0.131     1  02:01       0.071       0.241      -0.011
  R0019944             JUNCTION     0.147    2.122     1  02:04       0.183        4.86       0.003
  R0043703             JUNCTION     0.177    1.935     1  02:05       0.224        4.06      -0.006
  R0019945             JUNCTION     0.000    1.985     1  02:04           0        4.67      -0.012
  R0039621             JUNCTION     0.000    0.255     1  02:05           0      0.0648      -0.506
  R0019838             JUNCTION     0.330    0.487     1  02:05        0.45       0.469      -0.042
  R0039606             JUNCTION     0.000    0.713     1  02:04           0       0.927       0.077
  R0019204             JUNCTION     0.000    0.000     0  00:00           0           0       0.000 ltr
  R0019205             JUNCTION     0.000    0.032     1  02:04           0     0.00136     -12.020
  R0019849             JUNCTION     0.000    0.224     1  02:01           0       0.614       0.000
  R0019371             JUNCTION     0.000    0.000     0  00:00           0           0       0.000 ltr
  R0019718             JUNCTION     0.213    1.170     1  02:05       0.275        2.15      -0.159
  R0021442             JUNCTION     0.222    0.294     1  02:05       0.305       0.647       0.002
  R0019247             JUNCTION     0.116    0.231     1  02:03       0.142        0.73       0.027
  R0019719             JUNCTION     0.122    0.420     1  02:02        0.15       0.813       0.178
  R0019767             JUNCTION     0.000    2.605     1  02:04           0         6.7      -0.001
  R0019768             JUNCTION     0.000    2.593     1  02:04           0         6.7       0.002
  R0021453             JUNCTION     0.144    0.740     1  02:03        0.18       0.184      -1.344
  R0019839             JUNCTION     0.326    0.400     1  02:02       0.445       0.826       0.002
  R0019717             JUNCTION     0.399    1.710     1  02:04       0.559        3.53      -0.000
  R0019252             JUNCTION     0.190    0.216     1  02:05       0.243       0.247      -0.015
  R0019721             JUNCTION     0.054    0.183     1  02:03      0.0625       0.259       0.011
  R0019942             JUNCTION     0.000    0.122     1  02:01           0       0.374      -0.026
  R0019206             JUNCTION     0.000    0.099     1  02:04           0     0.00632       2.086
  R0019840             JUNCTION     0.000    0.560     1  02:02           0        1.41      -0.025
  R0043702             JUNCTION     0.326    0.760     1  02:02       0.445        1.85       0.147
  R0019723             JUNCTION     0.137    0.176     1  02:05       0.169       0.214      -0.076
  R0019724             JUNCTION     0.039    0.066     1  02:01      0.0441      0.0444      -0.171
  R0021433             JUNCTION     0.199    0.199     1  02:05       0.254       0.254      -0.047
  R0021435             JUNCTION     0.128    0.199     1  02:05       0.156        0.38       0.012
  R0019769             OUTFALL      0.000    2.598     1  02:04           0         6.7       0.000
  
  
  **********************
  Node Surcharge Summary
  **********************
  
  Surcharging occurs when water rises above the top of the highest conduit.
  ---------------------------------------------------------------------
                                               Max. Height   Min. Depth
                                   Hours       Above Crown    Below Rim
  Node                 Type      Surcharged         Meters       Meters
  ---------------------------------------------------------------------
  R0019466             JUNCTION        0.31          2.510        0.000
  R0019468             JUNCTION        0.30          2.430        0.000
  R0019831             JUNCTION        0.21          1.360        0.000
  R0019825             JUNCTION        0.26          1.200        0.000
  R0019843             JUNCTION        0.14          1.266        1.354
  R0019368             JUNCTION        0.17          1.050        0.000
  R0019369             JUNCTION        0.07          0.413        0.637
  R0019345             JUNCTION        0.20          1.750        0.000
  R0019346             JUNCTION        0.16          1.740        0.000
  R0043600             JUNCTION        0.18          2.501        0.079
  R0019203             JUNCTION        0.09          1.929        0.051
  R0043594             JUNCTION        0.07          1.820        0.000
  R0021458             JUNCTION        0.08          1.953        0.127
  R0019202             JUNCTION        0.09          1.981        0.019
  R0019373             JUNCTION        0.23          2.500        0.000
  R0019254             JUNCTION        0.24          1.830        0.000
  R0019716             JUNCTION        0.11          1.678        0.042
  R0019946             JUNCTION        0.15          1.520        0.000
  R0013935             JUNCTION        0.22          1.320        0.000
  R0019939             JUNCTION        0.31          1.620        0.000
  R0019944             JUNCTION        0.10          1.080        0.450
  R0043703             JUNCTION        0.10          1.257        0.063
  R0019945             JUNCTION        0.10          1.148        0.312
  R0039621             JUNCTION        0.11          1.060        0.000
  R0019838             JUNCTION        0.12          1.300        0.000
  R0039606             JUNCTION        0.09          1.987        0.013
  R0019849             JUNCTION        0.33          1.659        0.271
  R0019718             JUNCTION        0.10          1.972        0.028
  R0021442             JUNCTION        0.34          1.750        0.000
  R0019247             JUNCTION        0.22          1.860        0.000
  R0019719             JUNCTION        0.13          1.800        0.000
  R0021453             JUNCTION        0.06          1.500        0.000
  R0019839             JUNCTION        0.12          1.547        0.103
  R0019717             JUNCTION        0.09          1.730        0.120
  R0019252             JUNCTION        0.21          1.640        0.000
  R0019721             JUNCTION        0.15          1.560        0.000
  R0019942             JUNCTION        0.28          1.590        0.060
  R0019206             JUNCTION        0.06          0.577        1.133
  R0019840             JUNCTION        0.15          1.840        0.730
  R0043702             JUNCTION        0.16          2.066        0.844
  R0019723             JUNCTION        0.13          1.320        0.000
  R0019724             JUNCTION        0.12          1.412        0.038
  R0021433             JUNCTION        0.26          1.850        0.000
  R0021435             JUNCTION        0.30          1.810        0.000
  
  
  *********************
  Node Flooding Summary
  *********************
  
  Flooding refers to all water that overflows a node, whether it ponds or not.
  --------------------------------------------------------------------------
                                                             Total   Maximum
                                 Maximum   Time of Max       Flood    Ponded
                        Hours       Rate    Occurrence      Volume     Depth
  Node                 Flooded       CMS   days hr:min    10^6 ltr    Meters
  --------------------------------------------------------------------------
  R0019466                0.06     0.225      1  02:05       0.029     0.000
  R0019468                0.06     0.075      1  02:04       0.010     0.000
  R0019831                0.09     0.080      1  02:05       0.014     0.000
  R0019825                0.13     0.286      1  02:05       0.073     0.000
  R0019368                0.03     0.197      1  02:05       0.016     0.000
  R0019345                0.02     0.040      1  02:04       0.002     0.000
  R0019346                0.01     0.040      1  02:04       0.001     0.000
  R0043594                0.01     0.228      1  02:03       0.000     0.000
  R0019373                0.02     0.057      1  02:04       0.002     0.000
  R0019254                0.06     0.063      1  02:05       0.006     0.000
  R0019946                0.02     0.248      1  02:04       0.013     0.000
  R0013935                0.10     0.158      1  02:05       0.027     0.000
  R0019939                0.01     0.023      1  02:04       0.000     0.000
  R0039621                0.09     0.255      1  02:05       0.061     0.000
  R0019838                0.06     0.231      1  02:05       0.023     0.000
  R0021442                0.12     0.288      1  02:05       0.059     0.000
  R0019247                0.02     0.127      1  02:04       0.007     0.000
  R0019719                0.01     0.059      1  02:04       0.001     0.000
  R0021453                0.02     0.454      1  02:03       0.006     0.000
  R0019252                0.11     0.216      1  02:05       0.051     0.000
  R0019721                0.03     0.131      1  02:05       0.009     0.000
  R0019723                0.06     0.160      1  02:05       0.021     0.000
  R0021433                0.12     0.127      1  02:05       0.030     0.000
  R0021435                0.14     0.127      1  02:05       0.039     0.000
  
  
  ***********************
  Outfall Loading Summary
  ***********************
  
  -----------------------------------------------------------
                         Flow       Avg       Max       Total
                         Freq      Flow      Flow      Volume
  Outfall Node           Pcnt       CMS       CMS    10^6 ltr
  -----------------------------------------------------------
  R0019769              95.09     0.026     2.598       6.696
  -----------------------------------------------------------
  System                95.09     0.026     2.598       6.696
  
  
  ********************
  Link Flow Summary
  ********************
  
  -----------------------------------------------------------------------------
                                 Maximum  Time of Max   Maximum    Max/    Max/
                                  |Flow|   Occurrence   |Veloc|    Full    Full
  Link                 Type          CMS  days hr:min     m/sec    Flow   Depth
  -----------------------------------------------------------------------------
  H0014431             CONDUIT     0.091     1  02:01      1.28    1.68    1.00
  H0014433             CONDUIT     0.100     1  02:05      1.42    1.28    1.00
  H0014352             CONDUIT     2.740     1  02:04      4.31    1.12    1.00
  H0014373             CONDUIT     2.626     1  02:04      4.32    1.21    1.00
  H0017981             CONDUIT     0.162     1  02:01      2.30    4.59    1.00
  H0017755             CONDUIT     0.273     1  02:03      2.17    2.21    1.00
  H0017791             CONDUIT     0.554     1  02:03      0.87    0.80    1.00
  H0017357             CONDUIT     0.225     1  02:03      3.18    3.59    1.00
  H0018216             CONDUIT     0.163     1  02:01      2.31    2.98    1.00
  H0016792             CONDUIT     1.947     1  02:04      3.06    1.12    1.00
  H0019507             CONDUIT     0.087     1  02:01      1.24    1.21    1.00
  H0019998             CONDUIT     2.142     1  02:04      3.45    0.86    1.00
  H0019576             CONDUIT     1.929     1  02:05      3.03    1.30    1.00
  H0020087             CONDUIT     0.255     1  02:05      1.30    1.12    1.00
  H0020211             CONDUIT     1.797     1  02:05      2.82    4.48    1.00
  H0018982             CONDUIT     0.713     1  02:04      1.12    1.15    1.00
  H0018753             CONDUIT     0.076     1  02:05      1.08    1.08    1.00
  H0018845             CONDUIT     0.000     0  00:00      0.00    0.00    0.26
  H0018863             CONDUIT     0.127     1  02:01      1.79    2.97    1.00
  H0019156             CONDUIT     0.000     0  00:00      0.00    0.00    0.00
  H0018929             CONDUIT     0.979     1  02:05      1.54    0.85    1.00
  H0018440             CONDUIT     0.158     1  02:00      2.24    2.83    1.00
  H0018456             CONDUIT     0.319     1  02:02      2.54    1.94    1.00
  H0018968             CONDUIT     2.593     1  02:04      5.18    1.00    0.73
  H0022036             CONDUIT     0.608     1  02:03      0.96    0.47    1.00
  H0021806             CONDUIT     0.228     1  02:03      1.81    2.02    1.00
  H0022111             CONDUIT     0.162     1  02:07      0.88    1.16    1.00
  H0021440             CONDUIT     1.701     1  02:04      2.67    1.10    1.00
  H0021704             CONDUIT     1.171     1  02:05      1.84    2.23    1.00
  H0020521             CONDUIT     0.082     1  02:01      1.16    1.67    1.00
  H0020755             CONDUIT     0.170     1  02:03      1.35    1.87    1.00
  H0020530             CONDUIT     2.699     1  02:04      4.24    2.31    1.00
  H0020618             CONDUIT     1.979     1  02:04      3.35    1.23    1.00
  H0021163             CONDUIT     0.122     1  02:01      1.72    2.03    1.00
  H0020497             CONDUIT     0.099     1  02:04      1.41    0.22    1.00
  H0024325             CONDUIT     0.397     1  02:02      2.02    1.18    1.00
  H0023585             CONDUIT     0.729     1  02:02      3.71    1.68    1.00
  H0024098             CONDUIT     0.221     1  02:02      3.13    2.58    1.00
  H0024235             CONDUIT     0.409     1  02:02      2.08    1.68    1.00
  H0024282             CONDUIT     0.033     1  02:06      0.62    0.32    1.00
  H0024308             CONDUIT     2.598     1  02:04      5.90    0.76    0.65
  H0024498             CONDUIT     0.169     1  02:02      2.39    2.62    1.00
  H0026990             CONDUIT     0.136     1  02:02      1.08    1.03    1.00
  H0041650             CONDUIT     0.886     1  02:05      1.39    1.03    1.00
  H0041011             CONDUIT     0.113     1  02:01      1.59    1.12    1.00
  H0045103             CONDUIT     0.702     1  02:04      1.10    0.88    1.00
  H0045104             CONDUIT     2.605     1  02:04      4.86    0.92    0.79
  H0045105             CONDUIT     0.043     1  02:03      0.60    0.74    1.00
  H0045106             CONDUIT     0.513     1  02:02      2.61    0.69    1.00
  H0045107             CONDUIT     0.072     1  02:07      1.01    1.18    1.00
  H0045108             CONDUIT     0.089     1  02:09      1.26    1.61    1.00
  
  
  ***************************
  Flow Classification Summary
  ***************************
  
  -------------------------------------------------------------------------------------
                      Adjusted    ---------- Fraction of Time in Flow Class ---------- 
                       /Actual         Up    Down  Sub   Sup   Up    Down  Norm  Inlet 
  Conduit               Length    Dry  Dry   Dry   Crit  Crit  Crit  Crit  Ltd   Ctrl  
  -------------------------------------------------------------------------------------
  H0014431                1.00   0.05  0.00  0.00  0.95  0.00  0.00  0.00  0.94  0.00
  H0014433                1.00   0.05  0.00  0.00  0.95  0.00  0.00  0.00  0.95  0.00
  H0014352                1.00   0.05  0.00  0.00  0.02  0.93  0.00  0.00  0.95  0.00
  H0014373                1.00   0.05  0.00  0.00  0.00  0.95  0.00  0.00  0.00  0.00
  H0017981                1.00   0.05  0.00  0.00  0.00  0.00  0.00  0.95  0.00  0.00
  H0017755                1.00   0.05  0.00  0.00  0.00  0.00  0.00  0.95  0.00  0.00
  H0017791                1.00   0.05  0.00  0.00  0.95  0.00  0.00  0.00  0.95  0.00
  H0017357                1.00   0.05  0.95  0.00  0.00  0.00  0.00  0.00  0.65  0.00
  H0018216                1.00   0.05  0.00  0.00  0.95  0.00  0.00  0.00  0.94  0.00
  H0016792                1.00   0.05  0.00  0.00  0.95  0.00  0.00  0.00  0.95  0.00
  H0019507                1.00   0.05  0.00  0.00  0.95  0.00  0.00  0.00  0.95  0.00
  H0019998                1.00   0.05  0.00  0.00  0.01  0.95  0.00  0.00  0.95  0.00
  H0019576                1.00   0.05  0.00  0.00  0.34  0.61  0.00  0.00  0.93  0.00
  H0020087                1.00   0.05  0.93  0.00  0.02  0.00  0.00  0.00  0.65  0.00
  H0020211                1.00   0.05  0.00  0.00  0.95  0.00  0.00  0.00  0.00  0.00
  H0018982                1.00   0.05  0.00  0.00  0.95  0.00  0.00  0.00  0.01  0.00
  H0018753                1.00   0.05  0.00  0.00  0.95  0.00  0.00  0.00  0.95  0.00
  H0018845                1.00   0.34  0.66  0.00  0.00  0.00  0.00  0.00  0.00  0.00
  H0018863                1.00   0.05  0.00  0.00  0.95  0.00  0.00  0.00  0.94  0.00
  H0019156                1.00   1.00  0.00  0.00  0.00  0.00  0.00  0.00  0.00  0.00
  H0018929                1.00   0.05  0.00  0.00  0.95  0.00  0.00  0.00  0.95  0.00
  H0018440                1.00   0.05  0.00  0.00  0.95  0.00  0.00  0.00  0.94  0.00
  H0018456                1.00   0.05  0.00  0.00  0.95  0.00  0.00  0.00  0.94  0.00
  H0018968                1.00   0.05  0.00  0.00  0.00  0.95  0.00  0.00  0.01  0.00
  H0022036                1.00   0.05  0.00  0.00  0.06  0.10  0.00  0.79  0.04  0.00
  H0021806                1.00   0.05  0.00  0.00  0.95  0.00  0.00  0.00  0.35  0.00
  H0022111                1.00   0.05  0.00  0.00  0.95  0.00  0.00  0.00  0.00  0.00
  H0021440                1.00   0.05  0.00  0.00  0.02  0.93  0.00  0.00  0.01  0.00
  H0021704                1.00   0.05  0.00  0.00  0.00  0.00  0.00  0.95  0.00  0.00
  H0020521                1.00   0.05  0.00  0.00  0.95  0.00  0.00  0.00  0.95  0.00
  H0020755                1.00   0.05  0.00  0.00  0.95  0.00  0.00  0.00  0.94  0.00
  H0020530                1.00   0.05  0.00  0.00  0.02  0.93  0.00  0.00  0.02  0.00
  H0020618                1.00   0.05  0.00  0.00  0.01  0.94  0.00  0.00  0.04  0.00
  H0021163                1.00   0.05  0.00  0.00  0.93  0.02  0.00  0.00  0.01  0.00
  H0020497                1.20   0.05  0.95  0.00  0.01  0.00  0.00  0.00  0.66  0.00
  H0024325                1.00   0.05  0.00  0.00  0.02  0.93  0.00  0.00  0.01  0.00
  H0023585                1.00   0.05  0.00  0.00  0.00  0.00  0.00  0.95  0.00  0.00
  H0024098                1.00   0.05  0.00  0.00  0.95  0.00  0.00  0.00  0.94  0.00
  H0024235                1.00   0.05  0.00  0.00  0.00  0.00  0.00  0.95  0.00  0.00
  H0024282                1.00   0.34  0.00  0.00  0.65  0.00  0.00  0.00  0.00  0.00
  H0024308                1.00   0.05  0.00  0.00  0.00  0.95  0.00  0.00  0.50  0.00
  H0024498                1.00   0.05  0.00  0.00  0.00  0.00  0.00  0.95  0.00  0.00
  H0026990                1.00   0.05  0.00  0.00  0.95  0.00  0.00  0.00  0.95  0.00
  H0041650                1.00   0.05  0.00  0.00  0.95  0.00  0.00  0.00  0.93  0.00
  H0041011                1.00   0.05  0.00  0.00  0.95  0.00  0.00  0.00  0.94  0.00
  H0045103                1.00   0.05  0.00  0.00  0.95  0.00  0.00  0.00  0.64  0.00
  H0045104                1.00   0.05  0.00  0.00  0.00  0.95  0.00  0.00  0.94  0.00
  H0045105                1.00   0.05  0.00  0.00  0.95  0.00  0.00  0.00  0.95  0.00
  H0045106                1.00   0.05  0.00  0.00  0.02  0.94  0.00  0.00  0.95  0.00
  H0045107                1.00   0.05  0.00  0.00  0.95  0.00  0.00  0.00  0.95  0.00
  H0045108                1.00   0.05  0.00  0.00  0.95  0.00  0.00  0.00  0.95  0.00
  
  
  *************************
  Conduit Surcharge Summary
  *************************
  
  ----------------------------------------------------------------------------
                                                           Hours        Hours 
                         --------- Hours Full --------   Above Full   Capacity
  Conduit                Both Ends  Upstream  Dnstream   Normal Flow   Limited
  ----------------------------------------------------------------------------
  H0014431                    0.30      0.31      0.30      0.34         0.30
  H0014433                    0.21      0.21      0.26      0.10         0.10
  H0014352                    0.14      0.14      0.17      0.06         0.06
  H0014373                    0.01      0.07      0.01      0.12         0.05
  H0017981                    0.16      0.20      0.16      0.38         0.17
  H0017755                    0.17      0.18      0.17      0.21         0.15
  H0017791                    0.07      0.07      0.08      0.01         0.01
  H0017357                    0.14      0.14      0.23      0.14         0.01
  H0018216                    0.20      0.24      0.20      0.28         0.22
  H0016792                    0.11      0.11      0.15      0.03         0.03
  H0019507                    0.22      0.22      0.31      0.03         0.02
  H0019998                    0.10      0.10      0.14      0.01         0.01
  H0019576                    0.10      0.10      0.10      0.11         0.08
  H0020087                    0.11      0.11      0.12      0.05         0.01
  H0020211                    0.10      0.15      0.10      0.32         0.11
  H0018982                    0.08      0.08      0.09      0.01         0.02
  H0018753                    0.23      0.23      0.31      0.02         0.01
  H0018863                    0.31      0.31      0.33      0.20         0.19
  H0018929                    0.09      0.09      0.10      0.01         0.01
  H0018440                    0.27      0.34      0.27      0.37         0.28
  H0018456                    0.16      0.16      0.16      0.14         0.12
  H0022036                    0.06      0.06      0.07      0.01         0.01
  H0021806                    0.18      0.22      0.18      0.22         0.17
  H0022111                    0.12      0.12      0.12      0.04         0.04
  H0021440                    0.09      0.09      0.11      0.03         0.03
  H0021704                    0.09      0.10      0.09      0.17         0.08
  H0020521                    0.21      0.21      0.24      0.07         0.06
  H0020755                    0.15      0.15      0.16      0.07         0.07
  H0020530                    0.07      0.17      0.07      0.22         0.16
  H0020618                    0.10      0.10      0.10      0.12         0.09
  H0021163                    0.26      0.26      0.28      0.19         0.16
  H0020497                    0.06      0.06      0.24      0.01         0.01
  H0024325                    0.12      0.12      0.15      0.01         0.01
  H0023585                    0.15      0.16      0.15      0.17         0.15
  H0024098                    0.33      0.33      0.40      0.24         0.24
  H0024235                    0.13      0.13      0.14      0.09         0.08
  H0024282                    0.01      0.01      0.05      0.01         0.01
  H0024498                    0.15      0.30      0.15      0.37         0.26
  H0026990                    0.13      0.13      0.15      0.01         0.01
  H0041650                    0.09      0.09      0.09      0.01         0.02
  H0041011                    0.28      0.28      0.33      0.03         0.02
  H0045103                    0.09      0.09      0.09      0.01         0.01
  H0045105                    0.12      0.12      0.14      0.01         0.01
  H0045106                    0.15      0.15      0.16      0.01         0.01
  H0045107                    0.26      0.26      0.30      0.13         0.12
  H0045108                    0.30      0.30      0.34      0.25         0.25
  

  Analysis begun on:  Fri Mar 22 15:55:29 2024
  Analysis ended on:  Fri Mar 22 15:55:47 2024
  Total elapsed time: 00:00:18