
  EPA STORM WATER MANAGEMENT MODEL - VERSION 5.2 (Build 5.2.4)
  PYSWMM TOOLKIT API - VERSION v1.0 (2023-11-27)
  ------------------------------------------------------------

  Gievenbeck_e2_T30D2880 
  
  ****************
  Analysis Options
  ****************
  Flow Units ............... CMS
  Process Models:
    Rainfall/Runoff ........ YES
    RDII ................... NO
    Snowmelt ............... NO
    Groundwater ............ NO
    Flow Routing ........... YES
    Ponding Allowed ........ NO
    Water Quality .......... NO
  Infiltration Method ...... HORTON
  Flow Routing Method ...... DYNWAVE
  Surcharge Method ......... SLOT
  Starting Date ............ 01/01/2024 00:00:00
  Ending Date .............. 01/04/2024 04:00:00
  Antecedent Dry Days ...... 14.0
  Report Time Step ......... 00:01:00
  Wet Time Step ............ 00:01:00
  Dry Time Step ............ 00:01:00
  Routing Time Step ........ 1.00 sec
  Variable Time Step ....... YES
  Maximum Trials ........... 8
  Number of Threads ........ 1
  Head Tolerance ........... 0.001500 m
  
  
  **************************        Volume         Depth
  Runoff Quantity Continuity     hectare-m            mm
  **************************     ---------       -------
  Total Precipitation ......         0.957        94.570
  Evaporation Loss .........         0.008         0.815
  Infiltration Loss ........         0.449        44.337
  Surface Runoff ...........         0.500        49.352
  Final Storage ............         0.001         0.130
  Continuity Error (%) .....        -0.069
  
  
  **************************        Volume        Volume
  Flow Routing Continuity        hectare-m      10^6 ltr
  **************************     ---------     ---------
  Dry Weather Inflow .......         0.000         0.000
  Wet Weather Inflow .......         0.500         4.996
  Groundwater Inflow .......         0.000         0.000
  RDII Inflow ..............         0.000         0.000
  External Inflow ..........         0.000         0.000
  External Outflow .........         0.485         4.855
  Flooding Loss ............         0.015         0.146
  Evaporation Loss .........         0.000         0.000
  Exfiltration Loss ........         0.000         0.000
  Initial Stored Volume ....         0.000         0.000
  Final Stored Volume ......         0.000         0.000
  Continuity Error (%) .....        -0.102
  
  
  *************************
  Highest Continuity Errors
  *************************
  Node R0019206 (3.40%)
  
  
  ***************************
  Time-Step Critical Elements
  ***************************
  None
  
  
  ********************************
  Highest Flow Instability Indexes
  ********************************
  All links are stable.
  
  
  *********************************
  Most Frequent Nonconverging Nodes
  *********************************
  Convergence obtained at all time steps.
  
  
  *************************
  Routing Time Step Summary
  *************************
  Minimum Time Step           :     0.50 sec
  Average Time Step           :     1.00 sec
  Maximum Time Step           :     1.00 sec
  % of Time in Steady State   :     0.00
  Average Iterations per Step :     2.00
  % of Steps Not Converging   :     0.00
  Time Step Frequencies       :
      1.000 -  0.871 sec      :    99.98 %
      0.871 -  0.758 sec      :     0.01 %
      0.758 -  0.660 sec      :     0.00 %
      0.660 -  0.574 sec      :     0.00 %
      0.574 -  0.500 sec      :     0.00 %
  
  
  ***************************
  Subcatchment Runoff Summary
  ***************************
  
  ------------------------------------------------------------------------------------------------------------------------------
                            Total      Total      Total      Total     Imperv       Perv      Total       Total     Peak  Runoff
                           Precip      Runon       Evap      Infil     Runoff     Runoff     Runoff      Runoff   Runoff   Coeff
  Subcatchment                 mm         mm         mm         mm         mm         mm         mm    10^6 ltr      CMS
  ------------------------------------------------------------------------------------------------------------------------------
  EZG_368                   94.57       0.00       0.81      44.60      46.39       9.66      49.09        0.20     0.17   0.519
  EZG_392                   94.57       0.00       0.81      44.42      46.40       9.84      49.28        0.16     0.13   0.521
  EZG_352                   94.57       0.00       0.81      44.89      46.38       9.37      48.80        0.29     0.22   0.516
  EZG_372                   94.57       0.00       0.81      43.85      46.42      10.43      49.88        0.07     0.06   0.527
  EZG_416                   94.57       0.00       0.81      44.35      46.40       9.92      49.36        0.14     0.12   0.522
  EZG_388                   94.57       0.00       0.81      44.68      46.39       9.58      49.01        0.22     0.18   0.518
  EZG_394                   94.57       0.00       0.81      44.31      46.40       9.95      49.39        0.14     0.12   0.522
  EZG_400                   94.57       0.00       0.81      44.26      46.40      10.01      49.45        0.13     0.11   0.523
  EZG_390                   94.57       0.00       0.81      44.41      46.40       9.86      49.30        0.16     0.13   0.521
  EZG_350                   94.57       0.00       0.81      44.68      46.39       9.58      49.01        0.22     0.18   0.518
  EZG_370                   94.57       0.00       0.81      44.50      46.39       9.77      49.20        0.18     0.15   0.520
  EZG_398                   94.57       0.00       0.81      43.67      46.42      10.61      50.07        0.05     0.05   0.529
  EZG_382                   94.57       0.00       0.81      43.61      46.42      10.67      50.13        0.04     0.04   0.530
  EZG_374                   94.57       0.00       0.97      37.19      55.66       9.00      56.32        0.21     0.17   0.595
  EZG_412                   94.57       0.00       0.81      43.22      46.44      11.07      50.54        0.02     0.02   0.534
  EZG_344                   94.57       0.00       0.81      44.25      46.40      10.02      49.46        0.13     0.11   0.523
  EZG_376                   94.57       0.00       0.81      44.09      46.41      10.18      49.63        0.10     0.09   0.525
  EZG_356                   94.57       0.00       0.81      44.95      46.38       9.30      48.73        0.31     0.24   0.515
  EZG_386                   94.57       0.00       0.81      45.14      46.37       9.12      48.53        0.39     0.29   0.513
  EZG_380                   94.57       0.00       0.81      44.56      46.39       9.70      49.14        0.19     0.16   0.520
  EZG_378                   94.57       0.00       0.81      44.46      46.39       9.80      49.24        0.17     0.14   0.521
  EZG_414                   94.57       0.00       0.81      43.60      46.43      10.68      50.14        0.04     0.04   0.530
  EZG_402                   94.57       0.00       0.81      44.43      46.40       9.84      49.28        0.16     0.13   0.521
  EZG_358                   94.57       0.00       0.81      44.94      46.38       9.31      48.74        0.31     0.24   0.515
  EZG_364                   94.57       0.00       0.81      44.94      46.38       9.31      48.74        0.31     0.24   0.515
  EZG_410                   94.57       0.00       0.81      44.12      46.41      10.15      49.59        0.10     0.09   0.524
  EZG_366                   94.57       0.00       0.81      44.21      46.40      10.06      49.50        0.12     0.10   0.523
  EZG_18259                 94.57       0.00       0.81      44.21      46.40      10.06      49.50        0.12     0.10   0.523
  EZG_18258                 94.57       0.00       0.81      43.42      46.43      10.86      50.33        0.03     0.03   0.532
  EZG_346                   94.57       0.00       0.79      45.25      45.47       9.82      48.47        0.18     0.15   0.513
  EZG_348                   94.57       0.00       0.79      44.89      45.48      10.19      48.84        0.11     0.10   0.516
  
  
  ******************
  Node Depth Summary
  ******************
  
  ---------------------------------------------------------------------------------
                                 Average  Maximum  Maximum  Time of Max    Reported
                                   Depth    Depth      HGL   Occurrence   Max Depth
  Node                 Type       Meters   Meters   Meters  days hr:min      Meters
  ---------------------------------------------------------------------------------
  R0019466             JUNCTION     0.02     2.81    72.26     0  18:04        2.81
  R0019468             JUNCTION     0.02     2.73    72.04     0  18:04        2.73
  R0019831             JUNCTION     0.01     1.66    70.83     0  18:02        1.66
  R0019825             JUNCTION     0.02     1.50    70.34     0  18:01        1.50
  R0019843             JUNCTION     0.03     1.76    69.39     0  18:03        1.51
  R0019368             JUNCTION     0.05     1.81    68.60     0  18:03        1.50
  R0019369             JUNCTION     0.04     0.87    67.46     0  18:05        0.86
  R0019370             JUNCTION     0.03     0.66    66.56     0  18:05        0.66
  R0019345             JUNCTION     0.03     1.67    71.57     0  18:05        1.63
  R0019346             JUNCTION     0.02     1.58    71.38     0  18:05        1.50
  R0043600             JUNCTION     0.02     1.68    71.35     0  18:05        1.64
  R0019203             JUNCTION     0.03     1.57    71.11     0  18:05        1.49
  R0043594             JUNCTION     0.02     1.97    71.70     0  18:05        1.27
  R0021458             JUNCTION     0.03     1.93    71.58     0  18:05        1.46
  R0019202             JUNCTION     0.02     1.58    71.16     0  18:05        1.52
  R0019373             JUNCTION     0.01     2.51    72.18     0  18:05        2.51
  R0019254             JUNCTION     0.02     2.13    72.17     0  18:04        2.13
  R0019716             JUNCTION     0.03     1.64    70.65     0  18:06        1.54
  R0019946             JUNCTION     0.06     1.65    70.27     0  18:06        1.46
  R0013935             JUNCTION     0.01     1.62    70.45     0  18:02        1.62
  R0019939             JUNCTION     0.02     1.76    70.33     0  18:04        1.74
  R0019944             JUNCTION     0.03     1.32    69.60     0  18:06        1.20
  R0043703             JUNCTION     0.03     1.36    69.96     0  18:06        1.22
  R0019945             JUNCTION     0.03     1.31    69.71     0  18:06        1.21
  R0039621             JUNCTION     0.00     1.56    71.13     0  18:03        1.56
  R0019838             JUNCTION     0.02     1.80    71.26     0  18:03        1.74
  R0039606             JUNCTION     0.02     1.56    71.15     0  18:05        1.52
  R0019204             JUNCTION     0.00     0.00    69.91     0  00:00        0.00
  R0019205             JUNCTION     0.00     0.00    69.62     0  00:00        0.00
  R0019849             JUNCTION     0.02     1.55    70.07     0  18:05        1.53
  R0019371             JUNCTION     0.00     0.00    70.41     0  00:00        0.00
  R0019718             JUNCTION     0.05     1.69    71.11     0  18:05        1.49
  R0021442             JUNCTION     0.03     2.05    72.10     0  18:01        2.05
  R0019247             JUNCTION     0.02     1.77    71.65     0  18:06        1.53
  R0019719             JUNCTION     0.02     1.43    71.11     0  18:06        1.27
  R0019767             JUNCTION     0.03     0.70    65.43     0  18:05        0.70
  R0019768             JUNCTION     0.03     0.57    64.34     0  18:05        0.57
  R0021453             JUNCTION     0.01     1.70    71.65     0  18:05        0.99
  R0019839             JUNCTION     0.02     2.00    71.39     0  18:04        1.98
  R0019717             JUNCTION     0.03     1.61    70.95     0  18:05        1.59
  R0019252             JUNCTION     0.02     1.94    72.13     0  18:02        1.94
  R0019721             JUNCTION     0.02     1.69    71.56     0  18:05        1.62
  R0019942             JUNCTION     0.02     1.48    70.13     0  18:06        1.47
  R0019206             JUNCTION     0.00     0.12    69.19     0  18:05        0.10
  R0019840             JUNCTION     0.02     2.01    70.98     0  18:04        2.01
  R0043702             JUNCTION     0.02     2.20    70.90     0  18:04        2.19
  R0019723             JUNCTION     0.01     1.63    71.71     0  18:05        1.55
  R0019724             JUNCTION     0.01     1.58    71.74     0  18:05        1.46
  R0021433             JUNCTION     0.02     2.15    72.54     0  18:01        2.15
  R0021435             JUNCTION     0.02     2.11    72.29     0  18:01        2.11
  R0019769             OUTFALL      0.03     0.57    63.95     0  18:05        0.57
  
  
  *******************
  Node Inflow Summary
  *******************
  
  -------------------------------------------------------------------------------------------------
                                  Maximum  Maximum                  Lateral       Total        Flow
                                  Lateral    Total  Time of Max      Inflow      Inflow     Balance
                                   Inflow   Inflow   Occurrence      Volume      Volume       Error
  Node                 Type           CMS      CMS  days hr:min    10^6 ltr    10^6 ltr     Percent
  -------------------------------------------------------------------------------------------------
  R0019466             JUNCTION     0.165    0.165     0  18:05       0.203       0.332       0.017
  R0019468             JUNCTION     0.103    0.177     0  18:05       0.118       0.432      -0.002
  R0019831             JUNCTION     0.134    0.134     0  18:05        0.16        0.16       0.037
  R0019825             JUNCTION     0.134    0.235     0  18:05        0.16       0.316       0.004
  R0019843             JUNCTION     0.000    2.527     0  18:03           0        4.85      -0.034
  R0019368             JUNCTION     0.000    2.480     0  18:05           0        4.85      -0.019
  R0019369             JUNCTION     0.000    2.486     0  18:05           0        4.85      -0.008
  R0019370             JUNCTION     0.000    2.506     0  18:05           0        4.85      -0.001
  R0019345             JUNCTION     0.000    0.162     0  18:02           0       0.292       0.015
  R0019346             JUNCTION     0.020    0.309     0  18:04      0.0202       0.504       0.007
  R0043600             JUNCTION     0.000    0.220     0  18:03           0       0.537      -0.055
  R0019203             JUNCTION     0.042    0.905     0  18:06      0.0443        1.35      -0.024
  R0043594             JUNCTION     0.225    0.529     0  18:05       0.288       0.423      -0.255
  R0021458             JUNCTION     0.181    0.529     0  18:05       0.225       0.648       0.000
  R0019202             JUNCTION     0.062    0.718     0  18:05      0.0675       0.773      -0.172
  R0019373             JUNCTION     0.146    0.222     0  18:04       0.176       0.194       0.556
  R0019254             JUNCTION     0.122    0.172     0  18:02       0.144       0.292       0.017
  R0019716             JUNCTION     0.180    1.590     0  18:06       0.223        2.77      -0.009
  R0019946             JUNCTION     0.000    1.589     0  18:06           0        2.77      -0.007
  R0013935             JUNCTION     0.117    0.117     0  18:05       0.137       0.137       0.002
  R0019939             JUNCTION     0.046    0.127     0  18:03      0.0496        0.18      -0.010
  R0019944             JUNCTION     0.109    1.899     0  18:06       0.127        3.51       0.007
  R0043703             JUNCTION     0.131    1.689     0  18:06       0.156        2.92      -0.009
  R0019945             JUNCTION     0.000    1.859     0  18:06           0        3.38      -0.011
  R0039621             JUNCTION     0.000    0.205     0  18:05           0      0.0225      -1.178
  R0019838             JUNCTION     0.241    0.241     0  18:05       0.312       0.317      -0.047
  R0039606             JUNCTION     0.000    0.541     0  18:05           0       0.644       0.064
  R0019204             JUNCTION     0.000    0.000     0  00:00           0           0       0.000 ltr
  R0019205             JUNCTION     0.000    0.000     0  00:00           0           0       0.000 ltr
  R0019849             JUNCTION     0.000    0.221     0  18:03           0       0.461       0.001
  R0019371             JUNCTION     0.000    0.000     0  00:00           0           0       0.000 ltr
  R0019718             JUNCTION     0.157    0.976     0  18:06       0.191        1.55      -0.220
  R0021442             JUNCTION     0.167    0.239     0  18:05       0.213        0.46       0.007
  R0019247             JUNCTION     0.087    0.222     0  18:04       0.099       0.537       0.071
  R0019719             JUNCTION     0.091    0.391     0  18:04       0.104       0.608       0.296
  R0019767             JUNCTION     0.000    2.481     0  18:05           0        4.85      -0.002
  R0019768             JUNCTION     0.000    2.476     0  18:05           0        4.85       0.002
  R0021453             JUNCTION     0.108    0.483     0  18:05       0.125       0.129      -0.672
  R0019839             JUNCTION     0.238    0.408     0  18:03       0.309       0.603       0.034
  R0019717             JUNCTION     0.290    1.544     0  18:05       0.388        2.54      -0.002
  R0019252             JUNCTION     0.141    0.141     0  18:05       0.169       0.169      -0.025
  R0019721             JUNCTION     0.041    0.157     0  18:04      0.0436       0.192       0.033
  R0019942             JUNCTION     0.000    0.124     0  18:01           0        0.28      -0.053
  R0019206             JUNCTION     0.000    0.067     0  18:03           0     0.00158       3.518
  R0019840             JUNCTION     0.000    0.521     0  18:03           0        1.03      -0.027
  R0043702             JUNCTION     0.239    0.707     0  18:04       0.309        1.34       0.223
  R0019723             JUNCTION     0.102    0.123     0  18:04       0.118       0.149      -0.078
  R0019724             JUNCTION     0.030    0.048     0  18:02      0.0308       0.031      -0.224
  R0021433             JUNCTION     0.147    0.147     0  18:05       0.176       0.176      -0.058
  R0021435             JUNCTION     0.095    0.167     0  18:05       0.109       0.271       0.006
  R0019769             OUTFALL      0.000    2.485     0  18:05           0        4.85       0.000
  
  
  **********************
  Node Surcharge Summary
  **********************
  
  Surcharging occurs when water rises above the top of the highest conduit.
  ---------------------------------------------------------------------
                                               Max. Height   Min. Depth
                                   Hours       Above Crown    Below Rim
  Node                 Type      Surcharged         Meters       Meters
  ---------------------------------------------------------------------
  R0019466             JUNCTION        0.24          2.510        0.000
  R0019468             JUNCTION        0.23          2.430        0.000
  R0019831             JUNCTION        0.16          1.360        0.000
  R0019825             JUNCTION        0.20          1.200        0.000
  R0019843             JUNCTION        0.11          0.857        1.763
  R0019368             JUNCTION        0.13          0.906        0.144
  R0019345             JUNCTION        0.15          1.374        0.376
  R0019346             JUNCTION        0.13          1.180        0.560
  R0043600             JUNCTION        0.15          1.279        1.301
  R0019203             JUNCTION        0.04          0.666        1.314
  R0043594             JUNCTION        0.03          1.045        0.775
  R0021458             JUNCTION        0.03          1.030        1.050
  R0019202             JUNCTION        0.04          0.681        1.319
  R0019373             JUNCTION        0.17          2.212        0.288
  R0019254             JUNCTION        0.17          1.830        0.000
  R0019716             JUNCTION        0.07          0.738        0.982
  R0019946             JUNCTION        0.11          0.753        0.767
  R0013935             JUNCTION        0.17          1.320        0.000
  R0019939             JUNCTION        0.23          1.456        0.164
  R0019944             JUNCTION        0.06          0.418        1.112
  R0043703             JUNCTION        0.06          0.457        0.863
  R0019945             JUNCTION        0.06          0.412        1.048
  R0039621             JUNCTION        0.07          1.060        0.000
  R0019838             JUNCTION        0.08          1.300        0.000
  R0039606             JUNCTION        0.04          0.664        1.336
  R0019849             JUNCTION        0.25          1.250        0.680
  R0019718             JUNCTION        0.06          0.787        1.213
  R0021442             JUNCTION        0.26          1.750        0.000
  R0019247             JUNCTION        0.16          1.369        0.491
  R0019719             JUNCTION        0.10          0.925        0.875
  R0021453             JUNCTION        0.01          0.804        0.696
  R0019839             JUNCTION        0.08          1.495        0.155
  R0019717             JUNCTION        0.05          0.666        1.184
  R0019252             JUNCTION        0.15          1.640        0.000
  R0019721             JUNCTION        0.12          1.293        0.267
  R0019942             JUNCTION        0.21          1.182        0.468
  R0019840             JUNCTION        0.11          1.513        1.057
  R0043702             JUNCTION        0.13          1.695        1.215
  R0019723             JUNCTION        0.09          1.230        0.090
  R0019724             JUNCTION        0.09          1.276        0.174
  R0021433             JUNCTION        0.19          1.850        0.000
  R0021435             JUNCTION        0.23          1.810        0.000
  
  
  *********************
  Node Flooding Summary
  *********************
  
  Flooding refers to all water that overflows a node, whether it ponds or not.
  --------------------------------------------------------------------------
                                                             Total   Maximum
                                 Maximum   Time of Max       Flood    Ponded
                        Hours       Rate    Occurrence      Volume     Depth
  Node                 Flooded       CMS   days hr:min    10^6 ltr    Meters
  --------------------------------------------------------------------------
  R0019466                0.01     0.029      0  18:05       0.001     0.000
  R0019468                0.01     0.016      0  18:05       0.000     0.000
  R0019831                0.05     0.033      0  18:05       0.003     0.000
  R0019825                0.10     0.165      0  18:05       0.036     0.000
  R0019254                0.01     0.003      0  18:05       0.000     0.000
  R0013935                0.05     0.060      0  18:05       0.006     0.000
  R0039621                0.04     0.205      0  18:05       0.018     0.000
  R0019838                0.01     0.030      0  18:03       0.000     0.000
  R0021442                0.09     0.113      0  18:05       0.021     0.000
  R0019252                0.08     0.132      0  18:05       0.020     0.000
  R0021433                0.09     0.075      0  18:05       0.014     0.000
  R0021435                0.11     0.094      0  18:05       0.025     0.000
  
  
  ***********************
  Outfall Loading Summary
  ***********************
  
  -----------------------------------------------------------
                         Flow       Avg       Max       Total
                         Freq      Flow      Flow      Volume
  Outfall Node           Pcnt       CMS       CMS    10^6 ltr
  -----------------------------------------------------------
  R0019769              64.06     0.028     2.485       4.855
  -----------------------------------------------------------
  System                64.06     0.028     2.485       4.855
  
  
  ********************
  Link Flow Summary
  ********************
  
  -----------------------------------------------------------------------------
                                 Maximum  Time of Max   Maximum    Max/    Max/
                                  |Flow|   Occurrence   |Veloc|    Full    Full
  Link                 Type          CMS  days hr:min     m/sec    Flow   Depth
  -----------------------------------------------------------------------------
  H0014431             CONDUIT     0.086     0  18:02      1.22    1.59    1.00
  H0014433             CONDUIT     0.100     0  18:05      1.42    1.28    1.00
  H0014352             CONDUIT     2.480     0  18:05      3.90    1.02    1.00
  H0014373             CONDUIT     2.506     0  18:05      4.38    1.16    0.85
  H0017981             CONDUIT     0.162     0  18:02      2.29    4.59    1.00
  H0017755             CONDUIT     0.225     0  18:05      1.79    1.82    1.00
  H0017791             CONDUIT     0.402     0  18:05      0.72    0.58    1.00
  H0017357             CONDUIT     0.212     0  18:04      3.01    3.40    1.00
  H0018216             CONDUIT     0.162     0  18:02      2.29    2.94    1.00
  H0016792             CONDUIT     1.589     0  18:06      2.50    0.91    1.00
  H0019507             CONDUIT     0.087     0  18:03      1.23    1.21    1.00
  H0019998             CONDUIT     1.881     0  18:06      3.48    0.75    1.00
  H0019576             CONDUIT     1.692     0  18:06      2.66    1.14    1.00
  H0020087             CONDUIT     0.205     0  18:05      1.04    0.90    1.00
  H0020211             CONDUIT     1.607     0  18:06      2.53    4.00    1.00
  H0018982             CONDUIT     0.541     0  18:05      0.90    0.87    1.00
  H0018753             CONDUIT     0.081     0  18:04      1.15    1.15    1.00
  H0018845             CONDUIT     0.000     0  00:00      0.00    0.00    0.00
  H0018863             CONDUIT     0.123     0  18:03      1.74    2.89    1.00
  H0019156             CONDUIT     0.000     0  00:00      0.00    0.00    0.00
  H0018929             CONDUIT     0.875     0  18:06      1.45    0.76    1.00
  H0018440             CONDUIT     0.159     0  18:01      2.25    2.84    1.00
  H0018456             CONDUIT     0.305     0  18:04      2.43    1.85    1.00
  H0018968             CONDUIT     2.476     0  18:05      5.16    0.95    0.71
  H0022036             CONDUIT     0.396     0  18:05      0.63    0.31    1.00
  H0021806             CONDUIT     0.220     0  18:03      1.75    1.95    1.00
  H0022111             CONDUIT     0.194     0  18:03      0.99    1.39    1.00
  H0021440             CONDUIT     1.475     0  18:06      2.51    0.95    1.00
  H0021704             CONDUIT     0.994     0  18:05      1.71    1.89    1.00
  H0020521             CONDUIT     0.082     0  18:02      1.16    1.66    1.00
  H0020755             CONDUIT     0.159     0  18:05      1.27    1.76    1.00
  H0020530             CONDUIT     2.486     0  18:05      3.91    2.13    1.00
  H0020618             CONDUIT     1.834     0  18:06      3.35    1.14    1.00
  H0021163             CONDUIT     0.124     0  18:01      1.75    2.07    1.00
  H0020497             CONDUIT     0.067     0  18:03      0.95    0.15    1.00
  H0024325             CONDUIT     0.370     0  18:03      1.88    1.10    1.00
  H0023585             CONDUIT     0.697     0  18:04      3.55    1.60    1.00
  H0024098             CONDUIT     0.217     0  18:03      3.08    2.54    1.00
  H0024235             CONDUIT     0.385     0  18:04      1.96    1.58    1.00
  H0024282             CONDUIT     0.000     0  00:00      0.00    0.00    0.21
  H0024308             CONDUIT     2.485     0  18:05      5.85    0.73    0.63
  H0024498             CONDUIT     0.169     0  18:05      2.39    2.62    1.00
  H0026990             CONDUIT     0.118     0  18:04      0.94    0.89    1.00
  H0041650             CONDUIT     0.730     0  18:05      1.15    0.85    1.00
  H0041011             CONDUIT     0.116     0  18:01      1.64    1.15    1.00
  H0045103             CONDUIT     0.512     0  18:07      1.03    0.64    1.00
  H0045104             CONDUIT     2.481     0  18:05      4.83    0.88    0.76
  H0045105             CONDUIT     0.034     0  18:05      0.48    0.59    1.00
  H0045106             CONDUIT     0.488     0  18:04      2.48    0.66    1.00
  H0045107             CONDUIT     0.072     0  18:06      1.01    1.18    1.00
  H0045108             CONDUIT     0.088     0  18:08      1.25    1.59    1.00
  
  
  ***************************
  Flow Classification Summary
  ***************************
  
  -------------------------------------------------------------------------------------
                      Adjusted    ---------- Fraction of Time in Flow Class ---------- 
                       /Actual         Up    Down  Sub   Sup   Up    Down  Norm  Inlet 
  Conduit               Length    Dry  Dry   Dry   Crit  Crit  Crit  Crit  Ltd   Ctrl  
  -------------------------------------------------------------------------------------
  H0014431                1.00   0.05  0.00  0.00  0.95  0.00  0.00  0.00  0.94  0.00
  H0014433                1.00   0.05  0.00  0.00  0.95  0.00  0.00  0.00  0.95  0.00
  H0014352                1.00   0.05  0.00  0.00  0.34  0.62  0.00  0.00  0.95  0.00
  H0014373                1.00   0.05  0.00  0.00  0.32  0.63  0.00  0.00  0.30  0.00
  H0017981                1.00   0.05  0.00  0.00  0.00  0.00  0.00  0.95  0.00  0.00
  H0017755                1.00   0.05  0.00  0.00  0.00  0.00  0.00  0.95  0.00  0.00
  H0017791                1.00   0.05  0.00  0.00  0.95  0.00  0.00  0.00  0.95  0.00
  H0017357                1.00   0.05  0.95  0.00  0.00  0.00  0.00  0.00  0.76  0.00
  H0018216                1.00   0.05  0.31  0.00  0.64  0.00  0.00  0.00  0.95  0.00
  H0016792                1.00   0.05  0.30  0.00  0.65  0.00  0.00  0.00  0.95  0.00
  H0019507                1.00   0.05  0.00  0.00  0.95  0.00  0.00  0.00  0.95  0.00
  H0019998                1.00   0.05  0.00  0.00  0.32  0.63  0.00  0.00  0.65  0.00
  H0019576                1.00   0.05  0.00  0.00  0.35  0.61  0.00  0.00  0.63  0.00
  H0020087                1.00   0.05  0.94  0.00  0.02  0.00  0.00  0.00  0.76  0.00
  H0020211                1.00   0.05  0.00  0.00  0.95  0.00  0.00  0.00  0.30  0.00
  H0018982                1.00   0.05  0.00  0.00  0.95  0.00  0.00  0.00  0.33  0.00
  H0018753                1.00   0.05  0.00  0.00  0.95  0.00  0.00  0.00  0.95  0.00
  H0018845                1.00   1.00  0.00  0.00  0.00  0.00  0.00  0.00  0.00  0.00
  H0018863                1.00   0.05  0.00  0.00  0.95  0.00  0.00  0.00  0.94  0.00
  H0019156                1.00   1.00  0.00  0.00  0.00  0.00  0.00  0.00  0.00  0.00
  H0018929                1.00   0.05  0.31  0.00  0.64  0.00  0.00  0.00  0.95  0.00
  H0018440                1.00   0.05  0.00  0.00  0.95  0.00  0.00  0.00  0.94  0.00
  H0018456                1.00   0.05  0.00  0.00  0.95  0.00  0.00  0.00  0.94  0.00
  H0018968                1.00   0.05  0.30  0.00  0.02  0.64  0.00  0.00  0.32  0.00
  H0022036                1.00   0.05  0.00  0.00  0.06  0.07  0.00  0.83  0.04  0.00
  H0021806                1.00   0.05  0.31  0.00  0.64  0.00  0.00  0.00  0.66  0.00
  H0022111                1.00   0.05  0.00  0.00  0.95  0.00  0.00  0.00  0.00  0.00
  H0021440                1.00   0.05  0.00  0.00  0.34  0.61  0.00  0.00  0.01  0.00
  H0021704                1.00   0.05  0.00  0.00  0.00  0.00  0.00  0.95  0.00  0.00
  H0020521                1.00   0.05  0.00  0.00  0.95  0.00  0.00  0.00  0.95  0.00
  H0020755                1.00   0.05  0.32  0.00  0.64  0.00  0.00  0.00  0.94  0.00
  H0020530                1.00   0.05  0.00  0.00  0.34  0.61  0.00  0.00  0.02  0.00
  H0020618                1.00   0.05  0.00  0.00  0.33  0.62  0.00  0.00  0.33  0.00
  H0021163                1.00   0.05  0.00  0.00  0.93  0.02  0.00  0.00  0.32  0.00
  H0020497                1.20   0.05  0.95  0.00  0.00  0.00  0.00  0.00  0.76  0.00
  H0024325                1.00   0.05  0.00  0.00  0.34  0.62  0.00  0.00  0.32  0.00
  H0023585                1.00   0.05  0.00  0.00  0.00  0.00  0.00  0.95  0.00  0.00
  H0024098                1.00   0.05  0.31  0.00  0.64  0.00  0.00  0.00  0.95  0.00
  H0024235                1.00   0.05  0.00  0.00  0.00  0.00  0.00  0.95  0.00  0.00
  H0024282                1.00   1.00  0.00  0.00  0.00  0.00  0.00  0.00  0.00  0.00
  H0024308                1.00   0.05  0.00  0.00  0.30  0.65  0.00  0.00  0.21  0.00
  H0024498                1.00   0.05  0.00  0.00  0.00  0.00  0.00  0.95  0.00  0.00
  H0026990                1.00   0.05  0.00  0.00  0.95  0.00  0.00  0.00  0.95  0.00
  H0041650                1.00   0.36  0.01  0.00  0.63  0.00  0.00  0.00  0.93  0.00
  H0041011                1.00   0.05  0.00  0.00  0.95  0.00  0.00  0.00  0.94  0.00
  H0045103                1.00   0.05  0.00  0.00  0.95  0.00  0.00  0.00  0.65  0.00
  H0045104                1.00   0.05  0.00  0.00  0.31  0.64  0.00  0.00  0.64  0.00
  H0045105                1.00   0.05  0.00  0.00  0.95  0.00  0.00  0.00  0.95  0.00
  H0045106                1.00   0.05  0.31  0.00  0.02  0.62  0.00  0.00  0.95  0.00
  H0045107                1.00   0.05  0.00  0.00  0.95  0.00  0.00  0.00  0.95  0.00
  H0045108                1.00   0.05  0.00  0.00  0.95  0.00  0.00  0.00  0.95  0.00
  
  
  *************************
  Conduit Surcharge Summary
  *************************
  
  ----------------------------------------------------------------------------
                                                           Hours        Hours 
                         --------- Hours Full --------   Above Full   Capacity
  Conduit                Both Ends  Upstream  Dnstream   Normal Flow   Limited
  ----------------------------------------------------------------------------
  H0014431                    0.23      0.24      0.23      0.26         0.22
  H0014433                    0.16      0.16      0.20      0.07         0.07
  H0014352                    0.11      0.11      0.13      0.03         0.02
  H0014373                    0.01      0.01      0.01      0.09         0.01
  H0017981                    0.13      0.15      0.13      0.29         0.15
  H0017755                    0.14      0.15      0.14      0.17         0.14
  H0017791                    0.03      0.03      0.03      0.01         0.01
  H0017357                    0.11      0.11      0.17      0.11         0.01
  H0018216                    0.15      0.17      0.15      0.20         0.16
  H0016792                    0.07      0.07      0.11      0.01         0.01
  H0019507                    0.17      0.17      0.23      0.03         0.03
  H0019998                    0.06      0.06      0.11      0.01         0.01
  H0019576                    0.06      0.06      0.06      0.07         0.04
  H0020087                    0.07      0.07      0.08      0.01         0.01
  H0020211                    0.06      0.11      0.06      0.25         0.07
  H0018982                    0.03      0.03      0.04      0.01         0.01
  H0018753                    0.17      0.17      0.24      0.01         0.01
  H0018863                    0.23      0.23      0.25      0.15         0.15
  H0018929                    0.04      0.04      0.06      0.01         0.01
  H0018440                    0.19      0.26      0.19      0.30         0.24
  H0018456                    0.12      0.13      0.12      0.14         0.13
  H0022036                    0.01      0.01      0.03      0.01         0.01
  H0021806                    0.15      0.16      0.15      0.18         0.15
  H0022111                    0.08      0.08      0.08      0.04         0.04
  H0021440                    0.05      0.05      0.07      0.01         0.01
  H0021704                    0.05      0.06      0.05      0.15         0.04
  H0020521                    0.15      0.15      0.17      0.08         0.08
  H0020755                    0.12      0.12      0.13      0.07         0.07
  H0020530                    0.01      0.13      0.01      0.17         0.12
  H0020618                    0.06      0.06      0.06      0.08         0.05
  H0021163                    0.19      0.20      0.21      0.18         0.16
  H0020497                    0.01      0.01     57.94      0.01         0.01
  H0024325                    0.08      0.08      0.11      0.01         0.01
  H0023585                    0.11      0.13      0.11      0.13         0.11
  H0024098                    0.25      0.25      0.30      0.20         0.20
  H0024235                    0.09      0.10      0.10      0.10         0.08
  H0024498                    0.12      0.23      0.12      0.28         0.19
  H0026990                    0.09      0.09      0.12      0.01         0.01
  H0041650                    0.04      0.04      0.04      0.01         0.01
  H0041011                    0.21      0.21      0.25      0.04         0.03
  H0045103                    0.04      0.04      0.04      0.01         0.01
  H0045105                    0.09      0.09      0.11      0.01         0.01
  H0045106                    0.11      0.11      0.13      0.01         0.01
  H0045107                    0.19      0.19      0.23      0.10         0.09
  H0045108                    0.23      0.23      0.26      0.18         0.18
  

  Analysis begun on:  Fri Mar 22 15:56:28 2024
  Analysis ended on:  Fri Mar 22 15:56:43 2024
  Total elapsed time: 00:00:15