
  EPA STORM WATER MANAGEMENT MODEL - VERSION 5.2 (Build 5.2.4)
  PYSWMM TOOLKIT API - VERSION v1.0 (2023-11-27)
  ------------------------------------------------------------

  Gievenbeck_e2_T10D240 
  
  ****************
  Analysis Options
  ****************
  Flow Units ............... CMS
  Process Models:
    Rainfall/Runoff ........ YES
    RDII ................... NO
    Snowmelt ............... NO
    Groundwater ............ NO
    Flow Routing ........... YES
    Ponding Allowed ........ NO
    Water Quality .......... NO
  Infiltration Method ...... HORTON
  Flow Routing Method ...... DYNWAVE
  Surcharge Method ......... SLOT
  Starting Date ............ 01/01/2024 00:00:00
  Ending Date .............. 01/04/2024 04:00:00
  Antecedent Dry Days ...... 14.0
  Report Time Step ......... 00:01:00
  Wet Time Step ............ 00:01:00
  Dry Time Step ............ 00:01:00
  Routing Time Step ........ 1.00 sec
  Variable Time Step ....... YES
  Maximum Trials ........... 8
  Number of Threads ........ 1
  Head Tolerance ........... 0.001500 m
  
  
  **************************        Volume         Depth
  Runoff Quantity Continuity     hectare-m            mm
  **************************     ---------       -------
  Total Precipitation ......         0.408        40.280
  Evaporation Loss .........         0.010         0.953
  Infiltration Loss ........         0.197        19.476
  Surface Runoff ...........         0.201        19.900
  Final Storage ............         0.000         0.000
  Continuity Error (%) .....        -0.121
  
  
  **************************        Volume        Volume
  Flow Routing Continuity        hectare-m      10^6 ltr
  **************************     ---------     ---------
  Dry Weather Inflow .......         0.000         0.000
  Wet Weather Inflow .......         0.201         2.014
  Groundwater Inflow .......         0.000         0.000
  RDII Inflow ..............         0.000         0.000
  External Inflow ..........         0.000         0.000
  External Outflow .........         0.200         1.999
  Flooding Loss ............         0.002         0.015
  Evaporation Loss .........         0.000         0.000
  Exfiltration Loss ........         0.000         0.000
  Initial Stored Volume ....         0.000         0.000
  Final Stored Volume ......         0.000         0.000
  Continuity Error (%) .....         0.006
  
  
  *************************
  Highest Continuity Errors
  *************************
  Node R0019373 (1.46%)
  
  
  ***************************
  Time-Step Critical Elements
  ***************************
  None
  
  
  ********************************
  Highest Flow Instability Indexes
  ********************************
  All links are stable.
  
  
  *********************************
  Most Frequent Nonconverging Nodes
  *********************************
  Convergence obtained at all time steps.
  
  
  *************************
  Routing Time Step Summary
  *************************
  Minimum Time Step           :     0.50 sec
  Average Time Step           :     1.00 sec
  Maximum Time Step           :     1.00 sec
  % of Time in Steady State   :     0.00
  Average Iterations per Step :     2.00
  % of Steps Not Converging   :     0.00
  Time Step Frequencies       :
      1.000 -  0.871 sec      :    99.99 %
      0.871 -  0.758 sec      :     0.00 %
      0.758 -  0.660 sec      :     0.00 %
      0.660 -  0.574 sec      :     0.00 %
      0.574 -  0.500 sec      :     0.00 %
  
  
  ***************************
  Subcatchment Runoff Summary
  ***************************
  
  ------------------------------------------------------------------------------------------------------------------------------
                            Total      Total      Total      Total     Imperv       Perv      Total       Total     Peak  Runoff
                           Precip      Runon       Evap      Infil     Runoff     Runoff     Runoff      Runoff   Runoff   Coeff
  Subcatchment                 mm         mm         mm         mm         mm         mm         mm    10^6 ltr      CMS
  ------------------------------------------------------------------------------------------------------------------------------
  EZG_368                   40.28       0.00       0.95      19.62      19.22       3.42      19.76        0.08     0.10   0.491
  EZG_392                   40.28       0.00       0.94      19.49      19.23       3.55      19.89        0.06     0.08   0.494
  EZG_352                   40.28       0.00       0.95      19.81      19.22       3.22      19.56        0.12     0.14   0.486
  EZG_372                   40.28       0.00       0.93      19.07      19.25       3.99      20.35        0.03     0.04   0.505
  EZG_416                   40.28       0.00       0.94      19.44      19.23       3.60      19.95        0.06     0.08   0.495
  EZG_388                   40.28       0.00       0.95      19.67      19.22       3.37      19.71        0.09     0.11   0.489
  EZG_394                   40.28       0.00       0.94      19.41      19.23       3.63      19.98        0.06     0.07   0.496
  EZG_400                   40.28       0.00       0.94      19.38      19.24       3.67      20.02        0.05     0.07   0.497
  EZG_390                   40.28       0.00       0.94      19.48      19.23       3.56      19.91        0.06     0.08   0.494
  EZG_350                   40.28       0.00       0.95      19.68      19.22       3.36      19.70        0.09     0.11   0.489
  EZG_370                   40.28       0.00       0.95      19.55      19.23       3.50      19.84        0.07     0.09   0.493
  EZG_398                   40.28       0.00       0.93      18.93      19.25       4.13      20.50        0.02     0.03   0.509
  EZG_382                   40.28       0.00       0.93      18.88      19.26       4.18      20.55        0.02     0.03   0.510
  EZG_374                   40.28       0.00       1.14      16.02      23.06       3.57      23.17        0.09     0.11   0.575
  EZG_412                   40.28       0.00       0.92      18.56      19.27       4.52      20.90        0.01     0.01   0.519
  EZG_344                   40.28       0.00       0.94      19.37      19.24       3.68      20.03        0.05     0.07   0.497
  EZG_376                   40.28       0.00       0.94      19.25      19.24       3.80      20.15        0.04     0.05   0.500
  EZG_356                   40.28       0.00       0.95      19.85      19.21       3.18      19.51        0.13     0.15   0.484
  EZG_386                   40.28       0.00       0.96      19.98      19.21       3.06      19.38        0.15     0.18   0.481
  EZG_380                   40.28       0.00       0.95      19.59      19.23       3.45      19.79        0.08     0.10   0.491
  EZG_378                   40.28       0.00       0.94      19.52      19.23       3.52      19.86        0.07     0.09   0.493
  EZG_414                   40.28       0.00       0.93      18.87      19.26       4.19      20.56        0.02     0.03   0.510
  EZG_402                   40.28       0.00       0.94      19.49      19.23       3.55      19.89        0.06     0.08   0.494
  EZG_358                   40.28       0.00       0.95      19.85      19.21       3.19      19.52        0.12     0.15   0.485
  EZG_364                   40.28       0.00       0.95      19.85      19.21       3.19      19.52        0.12     0.15   0.485
  EZG_410                   40.28       0.00       0.94      19.28      19.24       3.77      20.12        0.04     0.06   0.500
  EZG_366                   40.28       0.00       0.94      19.34      19.24       3.71      20.06        0.05     0.06   0.498
  EZG_18259                 40.28       0.00       0.94      19.34      19.24       3.71      20.06        0.05     0.06   0.498
  EZG_18258                 40.28       0.00       0.93      18.72      19.26       4.34      20.72        0.01     0.02   0.514
  EZG_346                   40.28       0.00       0.93      19.91      18.84       3.48      19.49        0.07     0.09   0.484
  EZG_348                   40.28       0.00       0.92      19.65      18.85       3.74      19.76        0.04     0.06   0.491
  
  
  ******************
  Node Depth Summary
  ******************
  
  ---------------------------------------------------------------------------------
                                 Average  Maximum  Maximum  Time of Max    Reported
                                   Depth    Depth      HGL   Occurrence   Max Depth
  Node                 Type       Meters   Meters   Meters  days hr:min      Meters
  ---------------------------------------------------------------------------------
  R0019466             JUNCTION     0.00     1.17    70.62     0  03:25        1.16
  R0019468             JUNCTION     0.01     1.03    70.34     0  03:25        1.02
  R0019831             JUNCTION     0.00     1.51    70.68     0  03:25        1.50
  R0019825             JUNCTION     0.01     1.50    70.34     0  03:23        1.50
  R0019843             JUNCTION     0.01     0.70    68.33     0  03:26        0.69
  R0019368             JUNCTION     0.01     1.34    68.13     0  03:25        1.20
  R0019369             JUNCTION     0.01     0.69    67.28     0  03:26        0.69
  R0019370             JUNCTION     0.01     0.57    66.47     0  03:26        0.55
  R0019345             JUNCTION     0.01     0.84    70.74     0  03:25        0.77
  R0019346             JUNCTION     0.00     0.63    70.43     0  03:25        0.58
  R0043600             JUNCTION     0.00     0.54    70.21     0  03:25        0.53
  R0019203             JUNCTION     0.01     0.55    70.09     0  03:25        0.54
  R0043594             JUNCTION     0.00     0.41    70.14     0  03:25        0.40
  R0021458             JUNCTION     0.00     0.48    70.13     0  03:25        0.47
  R0019202             JUNCTION     0.00     0.52    70.10     0  03:25        0.51
  R0019373             JUNCTION     0.00     0.93    70.60     0  03:25        0.92
  R0019254             JUNCTION     0.00     1.62    71.66     0  03:25        1.58
  R0019716             JUNCTION     0.01     0.60    69.61     0  03:25        0.60
  R0019946             JUNCTION     0.01     0.85    69.47     0  03:25        0.85
  R0013935             JUNCTION     0.00     1.27    70.10     0  03:25        1.25
  R0019939             JUNCTION     0.00     1.31    69.88     0  03:25        1.29
  R0019944             JUNCTION     0.01     0.52    68.80     0  03:25        0.51
  R0043703             JUNCTION     0.01     0.65    69.25     0  03:25        0.65
  R0019945             JUNCTION     0.01     0.66    69.06     0  03:26        0.66
  R0039621             JUNCTION     0.00     0.27    69.84     0  03:25        0.26
  R0019838             JUNCTION     0.00     0.37    69.83     0  03:25        0.37
  R0039606             JUNCTION     0.00     0.51    70.10     0  03:25        0.50
  R0019204             JUNCTION     0.00     0.00    69.91     0  00:00        0.00
  R0019205             JUNCTION     0.00     0.00    69.62     0  00:00        0.00
  R0019849             JUNCTION     0.00     1.14    69.66     0  03:25        1.10
  R0019371             JUNCTION     0.00     0.00    70.41     0  00:00        0.00
  R0019718             JUNCTION     0.01     0.64    70.06     0  03:25        0.63
  R0021442             JUNCTION     0.01     2.05    72.10     0  03:23        2.05
  R0019247             JUNCTION     0.01     1.03    70.91     0  03:25        1.03
  R0019719             JUNCTION     0.00     0.50    70.18     0  03:25        0.48
  R0019767             JUNCTION     0.01     0.60    65.33     0  03:26        0.58
  R0019768             JUNCTION     0.01     0.50    64.27     0  03:26        0.48
  R0021453             JUNCTION     0.00     0.19    70.14     0  03:26        0.19
  R0019839             JUNCTION     0.00     0.35    69.74     0  03:25        0.34
  R0019717             JUNCTION     0.01     0.57    69.91     0  03:25        0.57
  R0019252             JUNCTION     0.00     1.83    72.02     0  03:25        1.78
  R0019721             JUNCTION     0.00     0.65    70.52     0  03:25        0.56
  R0019942             JUNCTION     0.00     1.14    69.79     0  03:25        1.11
  R0019206             JUNCTION     0.00     0.00    69.07     0  00:00        0.00
  R0019840             JUNCTION     0.00     0.56    69.53     0  03:25        0.49
  R0043702             JUNCTION     0.01     0.77    69.47     0  03:25        0.70
  R0019723             JUNCTION     0.00     0.52    70.60     0  03:25        0.38
  R0019724             JUNCTION     0.00     0.46    70.62     0  03:25        0.31
  R0021433             JUNCTION     0.00     2.15    72.54     0  03:23        2.15
  R0021435             JUNCTION     0.01     2.11    72.29     0  03:23        2.11
  R0019769             OUTFALL      0.01     0.50    63.88     0  03:26        0.48
  
  
  *******************
  Node Inflow Summary
  *******************
  
  -------------------------------------------------------------------------------------------------
                                  Maximum  Maximum                  Lateral       Total        Flow
                                  Lateral    Total  Time of Max      Inflow      Inflow     Balance
                                   Inflow   Inflow   Occurrence      Volume      Volume       Error
  Node                 Type           CMS      CMS  days hr:min    10^6 ltr    10^6 ltr     Percent
  -------------------------------------------------------------------------------------------------
  R0019466             JUNCTION     0.102    0.102     0  03:25      0.0816       0.132       0.081
  R0019468             JUNCTION     0.064    0.143     0  03:25       0.048       0.177      -0.031
  R0019831             JUNCTION     0.083    0.083     0  03:25      0.0644      0.0644       0.110
  R0019825             JUNCTION     0.083    0.164     0  03:25      0.0646       0.129       0.173
  R0019843             JUNCTION     0.000    1.996     0  03:25           0           2       0.033
  R0019368             JUNCTION     0.000    2.075     0  03:25           0           2      -0.017
  R0019369             JUNCTION     0.000    2.024     0  03:25           0           2      -0.015
  R0019370             JUNCTION     0.000    2.011     0  03:26           0           2       0.001
  R0019345             JUNCTION     0.000    0.149     0  03:25           0       0.126       0.032
  R0019346             JUNCTION     0.013    0.245     0  03:25     0.00834       0.213       0.003
  R0043600             JUNCTION     0.000    0.209     0  03:25           0       0.232      -0.076
  R0019203             JUNCTION     0.027    0.587     0  03:25      0.0182       0.558      -0.011
  R0043594             JUNCTION     0.139    0.200     0  03:24       0.116       0.166      -0.010
  R0021458             JUNCTION     0.112    0.261     0  03:25      0.0904       0.257      -0.002
  R0019202             JUNCTION     0.039    0.366     0  03:25      0.0275       0.307      -0.376
  R0019373             JUNCTION     0.090    0.111     0  03:25      0.0711      0.0743       1.482
  R0019254             JUNCTION     0.076    0.154     0  03:25      0.0581       0.126       0.048
  R0019716             JUNCTION     0.111    1.182     0  03:25      0.0898        1.13      -0.013
  R0019946             JUNCTION     0.000    1.182     0  03:25           0        1.13       0.003
  R0013935             JUNCTION     0.073    0.073     0  03:25      0.0554      0.0554       0.087
  R0019939             JUNCTION     0.030    0.098     0  03:25      0.0203      0.0757      -0.075
  R0019944             JUNCTION     0.068    1.474     0  03:25      0.0516        1.45       0.009
  R0043703             JUNCTION     0.081    1.240     0  03:25       0.063         1.2       0.010
  R0019945             JUNCTION     0.000    1.432     0  03:25           0         1.4      -0.010
  R0039621             JUNCTION     0.000    0.008     0  03:21           0     0.00175       0.467
  R0019838             JUNCTION     0.149    0.149     0  03:25       0.125       0.127      -0.007
  R0039606             JUNCTION     0.000    0.238     0  03:25           0       0.257       0.033
  R0019204             JUNCTION     0.000    0.000     0  00:00           0           0       0.000 ltr
  R0019205             JUNCTION     0.000    0.000     0  00:00           0           0       0.000 ltr
  R0019849             JUNCTION     0.000    0.202     0  03:25           0         0.2       0.006
  R0019371             JUNCTION     0.000    0.000     0  00:00           0           0       0.000 ltr
  R0019718             JUNCTION     0.097    0.663     0  03:25      0.0771       0.635      -0.669
  R0021442             JUNCTION     0.109    0.182     0  03:25      0.0878       0.194       0.037
  R0019247             JUNCTION     0.055    0.210     0  03:25      0.0402       0.232       0.096
  R0019719             JUNCTION     0.057    0.290     0  03:25      0.0423       0.255       0.500
  R0019767             JUNCTION     0.000    2.004     0  03:26           0           2      -0.004
  R0019768             JUNCTION     0.000    2.010     0  03:26           0           2       0.007
  R0021453             JUNCTION     0.067    0.067     0  03:25      0.0506      0.0506      -0.064
  R0019839             JUNCTION     0.147    0.282     0  03:25       0.124       0.249       0.030
  R0019717             JUNCTION     0.180    1.092     0  03:25       0.155        1.05       0.299
  R0019252             JUNCTION     0.087    0.087     0  03:25      0.0681      0.0681      -0.028
  R0019721             JUNCTION     0.027    0.094     0  03:24      0.0179      0.0783       0.030
  R0019942             JUNCTION     0.000    0.122     0  03:23           0       0.124      -0.253
  R0019206             JUNCTION     0.000    0.000     0  00:00           0           0       0.000 ltr
  R0019840             JUNCTION     0.000    0.418     0  03:25           0       0.426      -0.021
  R0043702             JUNCTION     0.147    0.565     0  03:25       0.124       0.549       0.010
  R0019723             JUNCTION     0.063    0.078     0  03:25      0.0477      0.0604      -0.125
  R0019724             JUNCTION     0.019    0.019     0  03:25      0.0127      0.0127      -0.162
  R0021433             JUNCTION     0.090    0.090     0  03:25      0.0709      0.0709      -0.125
  R0021435             JUNCTION     0.059    0.131     0  03:25       0.044       0.113      -0.082
  R0019769             OUTFALL      0.000    2.024     0  03:26           0           2       0.000
  
  
  **********************
  Node Surcharge Summary
  **********************
  
  Surcharging occurs when water rises above the top of the highest conduit.
  ---------------------------------------------------------------------
                                               Max. Height   Min. Depth
                                   Hours       Above Crown    Below Rim
  Node                 Type      Surcharged         Meters       Meters
  ---------------------------------------------------------------------
  R0019466             JUNCTION        0.16          0.871        1.639
  R0019468             JUNCTION        0.15          0.731        1.699
  R0019831             JUNCTION        0.09          1.205        0.155
  R0019825             JUNCTION        0.13          1.200        0.000
  R0019368             JUNCTION        0.04          0.438        0.612
  R0019345             JUNCTION        0.10          0.543        1.207
  R0019346             JUNCTION        0.06          0.227        1.513
  R0043600             JUNCTION        0.07          0.144        2.436
  R0019373             JUNCTION        0.10          0.627        1.873
  R0019254             JUNCTION        0.11          1.322        0.508
  R0013935             JUNCTION        0.10          0.969        0.351
  R0019939             JUNCTION        0.16          1.012        0.608
  R0019849             JUNCTION        0.17          0.840        1.090
  R0021442             JUNCTION        0.17          1.750        0.000
  R0019247             JUNCTION        0.10          0.631        1.229
  R0019252             JUNCTION        0.09          1.531        0.109
  R0019721             JUNCTION        0.05          0.246        1.314
  R0019942             JUNCTION        0.14          0.845        0.805
  R0019840             JUNCTION        0.01          0.064        2.506
  R0043702             JUNCTION        0.04          0.274        2.636
  R0019723             JUNCTION        0.01          0.119        1.201
  R0019724             JUNCTION        0.02          0.158        1.292
  R0021433             JUNCTION        0.13          1.850        0.000
  R0021435             JUNCTION        0.15          1.810        0.000
  
  
  *********************
  Node Flooding Summary
  *********************
  
  Flooding refers to all water that overflows a node, whether it ponds or not.
  --------------------------------------------------------------------------
                                                             Total   Maximum
                                 Maximum   Time of Max       Flood    Ponded
                        Hours       Rate    Occurrence      Volume     Depth
  Node                 Flooded       CMS   days hr:min    10^6 ltr    Meters
  --------------------------------------------------------------------------
  R0019825                0.04     0.054      0  03:25       0.004     0.000
  R0021442                0.03     0.026      0  03:25       0.002     0.000
  R0021433                0.03     0.019      0  03:25       0.001     0.000
  R0021435                0.05     0.058      0  03:25       0.007     0.000
  
  
  ***********************
  Outfall Loading Summary
  ***********************
  
  -----------------------------------------------------------
                         Flow       Avg       Max       Total
                         Freq      Flow      Flow      Volume
  Outfall Node           Pcnt       CMS       CMS    10^6 ltr
  -----------------------------------------------------------
  R0019769               8.15     0.090     2.024       1.999
  -----------------------------------------------------------
  System                 8.15     0.090     2.024       1.999
  
  
  ********************
  Link Flow Summary
  ********************
  
  -----------------------------------------------------------------------------
                                 Maximum  Time of Max   Maximum    Max/    Max/
                                  |Flow|   Occurrence   |Veloc|    Full    Full
  Link                 Type          CMS  days hr:min     m/sec    Flow   Depth
  -----------------------------------------------------------------------------
  H0014431             CONDUIT     0.079     0  03:25      1.12    1.46    1.00
  H0014433             CONDUIT     0.082     0  03:25      1.16    1.05    1.00
  H0014352             CONDUIT     2.075     0  03:25      3.26    0.85    1.00
  H0014373             CONDUIT     2.011     0  03:26      4.27    0.93    0.69
  H0017981             CONDUIT     0.147     0  03:25      2.08    4.15    1.00
  H0017755             CONDUIT     0.208     0  03:25      1.66    1.69    1.00
  H0017791             CONDUIT     0.154     0  03:24      0.68    0.22    0.49
  H0017357             CONDUIT     0.109     0  03:25      1.55    1.75    1.00
  H0018216             CONDUIT     0.149     0  03:25      2.11    2.71    1.00
  H0016792             CONDUIT     1.182     0  03:25      2.15    0.68    0.81
  H0019507             CONDUIT     0.069     0  03:25      0.97    0.96    1.00
  H0019998             CONDUIT     1.486     0  03:25      3.49    0.59    0.67
  H0019576             CONDUIT     1.243     0  03:26      2.53    0.84    0.73
  H0020087             CONDUIT     0.010     0  03:25      0.17    0.05    0.64
  H0020211             CONDUIT     1.187     0  03:26      2.12    2.96    0.83
  H0018982             CONDUIT     0.238     0  03:25      0.83    0.38    0.55
  H0018753             CONDUIT     0.039     0  03:21      0.64    0.56    1.00
  H0018845             CONDUIT     0.000     0  00:00      0.00    0.00    0.00
  H0018863             CONDUIT     0.095     0  03:25      1.35    2.24    1.00
  H0019156             CONDUIT     0.000     0  00:00      0.00    0.00    0.00
  H0018929             CONDUIT     0.588     0  03:25      1.36    0.51    0.66
  H0018440             CONDUIT     0.162     0  03:23      2.29    2.89    1.00
  H0018456             CONDUIT     0.246     0  03:25      1.96    1.49    1.00
  H0018968             CONDUIT     2.010     0  03:26      4.96    0.77    0.61
  H0022036             CONDUIT     0.064     0  03:24      0.52    0.05    0.31
  H0021806             CONDUIT     0.209     0  03:25      1.66    1.85    1.00
  H0022111             CONDUIT     0.137     0  03:25      0.92    0.98    0.72
  H0021440             CONDUIT     1.096     0  03:25      2.52    0.71    0.65
  H0021704             CONDUIT     0.669     0  03:25      1.59    1.28    0.65
  H0020521             CONDUIT     0.081     0  03:25      1.14    1.63    1.00
  H0020755             CONDUIT     0.092     0  03:25      0.75    1.01    1.00
  H0020530             CONDUIT     2.024     0  03:25      3.24    1.73    1.00
  H0020618             CONDUIT     1.431     0  03:26      3.27    0.89    0.65
  H0021163             CONDUIT     0.122     0  03:23      1.73    2.04    1.00
  H0020497             CONDUIT     0.000     0  00:00      0.00    0.00    1.00
  H0024325             CONDUIT     0.278     0  03:25      1.88    0.83    0.90
  H0023585             CONDUIT     0.516     0  03:25      2.63    1.19    1.00
  H0024098             CONDUIT     0.200     0  03:25      2.83    2.33    1.00
  H0024235             CONDUIT     0.286     0  03:25      1.51    1.17    0.93
  H0024282             CONDUIT     0.000     0  00:00      0.00    0.00    0.00
  H0024308             CONDUIT     2.024     0  03:26      5.59    0.59    0.56
  H0024498             CONDUIT     0.141     0  03:25      1.99    2.18    1.00
  H0026990             CONDUIT     0.074     0  03:25      0.80    0.56    1.00
  H0041650             CONDUIT     0.368     0  03:25      0.95    0.43    0.59
  H0041011             CONDUIT     0.117     0  03:24      1.65    1.16    1.00
  H0045103             CONDUIT     0.261     0  03:26      0.86    0.33    0.57
  H0045104             CONDUIT     2.004     0  03:26      4.62    0.71    0.64
  H0045105             CONDUIT     0.025     0  03:25      0.42    0.44    1.00
  H0045106             CONDUIT     0.422     0  03:25      2.38    0.57    1.00
  H0045107             CONDUIT     0.072     0  03:25      1.01    1.18    1.00
  H0045108             CONDUIT     0.090     0  03:26      1.28    1.62    1.00
  
  
  ***************************
  Flow Classification Summary
  ***************************
  
  -------------------------------------------------------------------------------------
                      Adjusted    ---------- Fraction of Time in Flow Class ---------- 
                       /Actual         Up    Down  Sub   Sup   Up    Down  Norm  Inlet 
  Conduit               Length    Dry  Dry   Dry   Crit  Crit  Crit  Crit  Ltd   Ctrl  
  -------------------------------------------------------------------------------------
  H0014431                1.00   0.03  0.00  0.00  0.97  0.00  0.00  0.00  0.96  0.00
  H0014433                1.00   0.03  0.00  0.00  0.97  0.00  0.00  0.00  0.97  0.00
  H0014352                1.00   0.03  0.00  0.00  0.91  0.06  0.00  0.00  0.97  0.00
  H0014373                1.00   0.03  0.00  0.00  0.89  0.08  0.00  0.00  0.88  0.00
  H0017981                1.00   0.03  0.00  0.00  0.00  0.00  0.00  0.97  0.00  0.00
  H0017755                1.00   0.03  0.00  0.00  0.00  0.00  0.00  0.97  0.00  0.00
  H0017791                1.00   0.03  0.00  0.00  0.97  0.00  0.00  0.00  0.96  0.00
  H0017357                1.00   0.03  0.97  0.00  0.00  0.00  0.00  0.00  0.95  0.00
  H0018216                1.00   0.03  0.89  0.00  0.08  0.00  0.00  0.00  0.96  0.00
  H0016792                1.00   0.03  0.88  0.00  0.09  0.00  0.00  0.00  0.96  0.00
  H0019507                1.00   0.03  0.00  0.00  0.97  0.00  0.00  0.00  0.97  0.00
  H0019998                1.00   0.03  0.00  0.00  0.89  0.08  0.00  0.00  0.09  0.00
  H0019576                1.00   0.03  0.00  0.00  0.92  0.05  0.00  0.00  0.08  0.00
  H0020087                1.00   0.03  0.95  0.00  0.02  0.00  0.00  0.00  0.95  0.00
  H0020211                1.00   0.03  0.00  0.00  0.97  0.00  0.00  0.00  0.88  0.00
  H0018982                1.00   0.03  0.00  0.00  0.97  0.00  0.00  0.00  0.90  0.00
  H0018753                1.00   0.03  0.00  0.00  0.97  0.00  0.00  0.00  0.97  0.00
  H0018845                1.00   1.00  0.00  0.00  0.00  0.00  0.00  0.00  0.00  0.00
  H0018863                1.00   0.03  0.00  0.00  0.97  0.00  0.00  0.00  0.96  0.00
  H0019156                1.00   1.00  0.00  0.00  0.00  0.00  0.00  0.00  0.00  0.00
  H0018929                1.00   0.03  0.88  0.00  0.08  0.00  0.00  0.00  0.97  0.00
  H0018440                1.00   0.03  0.00  0.00  0.97  0.00  0.00  0.00  0.96  0.00
  H0018456                1.00   0.03  0.00  0.00  0.97  0.00  0.00  0.00  0.96  0.00
  H0018968                1.00   0.03  0.87  0.00  0.01  0.08  0.00  0.00  0.90  0.00
  H0022036                1.00   0.03  0.00  0.00  0.03  0.01  0.00  0.92  0.02  0.00
  H0021806                1.00   0.03  0.89  0.00  0.08  0.00  0.00  0.00  0.92  0.00
  H0022111                1.00   0.03  0.00  0.00  0.97  0.00  0.00  0.00  0.00  0.00
  H0021440                1.00   0.03  0.00  0.00  0.91  0.06  0.00  0.00  0.02  0.00
  H0021704                1.00   0.03  0.00  0.00  0.00  0.00  0.00  0.97  0.00  0.00
  H0020521                1.00   0.03  0.00  0.00  0.97  0.00  0.00  0.00  0.97  0.00
  H0020755                1.00   0.03  0.89  0.00  0.08  0.00  0.00  0.00  0.96  0.00
  H0020530                1.00   0.03  0.00  0.00  0.91  0.06  0.00  0.00  0.01  0.00
  H0020618                1.00   0.03  0.00  0.00  0.90  0.07  0.00  0.00  0.90  0.00
  H0021163                1.00   0.03  0.00  0.00  0.96  0.01  0.00  0.00  0.90  0.00
  H0020497                1.20   0.03  0.97  0.00  0.00  0.00  0.00  0.00  0.00  0.00
  H0024325                1.00   0.03  0.00  0.00  0.91  0.06  0.00  0.00  0.90  0.00
  H0023585                1.00   0.03  0.00  0.00  0.00  0.00  0.00  0.97  0.00  0.00
  H0024098                1.00   0.03  0.89  0.00  0.08  0.00  0.00  0.00  0.96  0.00
  H0024235                1.00   0.03  0.00  0.00  0.00  0.00  0.00  0.97  0.00  0.00
  H0024282                1.00   1.00  0.00  0.00  0.00  0.00  0.00  0.00  0.00  0.00
  H0024308                1.00   0.03  0.00  0.00  0.88  0.09  0.00  0.00  0.03  0.00
  H0024498                1.00   0.03  0.00  0.00  0.00  0.00  0.00  0.97  0.00  0.00
  H0026990                1.00   0.03  0.00  0.00  0.97  0.00  0.00  0.00  0.97  0.00
  H0041650                1.00   0.92  0.01  0.00  0.07  0.00  0.00  0.00  0.95  0.00
  H0041011                1.00   0.03  0.00  0.00  0.97  0.00  0.00  0.00  0.96  0.00
  H0045103                1.00   0.03  0.00  0.00  0.97  0.00  0.00  0.00  0.91  0.00
  H0045104                1.00   0.03  0.00  0.00  0.89  0.08  0.00  0.00  0.09  0.00
  H0045105                1.00   0.03  0.00  0.00  0.97  0.00  0.00  0.00  0.97  0.00
  H0045106                1.00   0.03  0.00  0.00  0.91  0.06  0.00  0.00  0.97  0.00
  H0045107                1.00   0.03  0.00  0.00  0.97  0.00  0.00  0.00  0.97  0.00
  H0045108                1.00   0.03  0.00  0.00  0.97  0.00  0.00  0.00  0.97  0.00
  
  
  *************************
  Conduit Surcharge Summary
  *************************
  
  ----------------------------------------------------------------------------
                                                           Hours        Hours 
                         --------- Hours Full --------   Above Full   Capacity
  Conduit                Both Ends  Upstream  Dnstream   Normal Flow   Limited
  ----------------------------------------------------------------------------
  H0014431                    0.15      0.16      0.15      0.17         0.15
  H0014433                    0.09      0.09      0.13      0.02         0.01
  H0014352                    0.01      0.01      0.04      0.01         0.01
  H0017981                    0.06      0.10      0.06      0.18         0.08
  H0017755                    0.05      0.07      0.05      0.12         0.07
  H0017357                    0.01      0.01      0.10      0.05         0.01
  H0018216                    0.10      0.11      0.10      0.14         0.11
  H0019507                    0.10      0.10      0.16      0.01         0.01
  H0020211                    0.01      0.01      0.01      0.17         0.01
  H0018753                    0.10      0.10      0.16      0.01         0.01
  H0018863                    0.16      0.16      0.17      0.10         0.09
  H0018440                    0.13      0.17      0.13      0.20         0.16
  H0018456                    0.04      0.06      0.04      0.08         0.05
  H0021806                    0.07      0.10      0.07      0.12         0.09
  H0021704                    0.01      0.01      0.01      0.07         0.01
  H0020521                    0.09      0.09      0.11      0.08         0.08
  H0020755                    0.05      0.05      0.06      0.01         0.01
  H0020530                    0.01      0.04      0.01      0.10         0.03
  H0021163                    0.13      0.13      0.14      0.13         0.11
  H0024325                    0.01      0.01      0.01      0.01         0.01
  H0023585                    0.01      0.04      0.01      0.06         0.04
  H0024098                    0.17      0.17      0.20      0.14         0.13
  H0024235                    0.01      0.01      0.01      0.04         0.01
  H0024498                    0.02      0.15      0.02      0.18         0.12
  H0026990                    0.01      0.01      0.05      0.01         0.01
  H0041011                    0.14      0.14      0.17      0.06         0.06
  H0045105                    0.02      0.02      0.03      0.01         0.01
  H0045106                    0.01      0.01      0.04      0.01         0.01
  H0045107                    0.13      0.13      0.15      0.04         0.04
  H0045108                    0.15      0.15      0.17      0.12         0.12
  

  Analysis begun on:  Fri Mar 22 15:55:31 2024
  Analysis ended on:  Fri Mar 22 15:55:42 2024
  Total elapsed time: 00:00:11