
  EPA STORM WATER MANAGEMENT MODEL - VERSION 5.2 (Build 5.2.4)
  PYSWMM TOOLKIT API - VERSION v1.0 (2023-11-27)
  ------------------------------------------------------------

  Gievenbeck_e2_T30D15 
  
  ****************
  Analysis Options
  ****************
  Flow Units ............... CMS
  Process Models:
    Rainfall/Runoff ........ YES
    RDII ................... NO
    Snowmelt ............... NO
    Groundwater ............ NO
    Flow Routing ........... YES
    Ponding Allowed ........ NO
    Water Quality .......... NO
  Infiltration Method ...... HORTON
  Flow Routing Method ...... DYNWAVE
  Surcharge Method ......... SLOT
  Starting Date ............ 01/01/2024 00:00:00
  Ending Date .............. 01/04/2024 04:00:00
  Antecedent Dry Days ...... 14.0
  Report Time Step ......... 00:01:00
  Wet Time Step ............ 00:01:00
  Dry Time Step ............ 00:01:00
  Routing Time Step ........ 1.00 sec
  Variable Time Step ....... YES
  Maximum Trials ........... 8
  Number of Threads ........ 1
  Head Tolerance ........... 0.001500 m
  
  
  **************************        Volume         Depth
  Runoff Quantity Continuity     hectare-m            mm
  **************************     ---------       -------
  Total Precipitation ......         0.244        24.100
  Evaporation Loss .........         0.010         0.968
  Infiltration Loss ........         0.105        10.412
  Surface Runoff ...........         0.130        12.832
  Final Storage ............         0.000         0.000
  Continuity Error (%) .....        -0.464
  
  
  **************************        Volume        Volume
  Flow Routing Continuity        hectare-m      10^6 ltr
  **************************     ---------     ---------
  Dry Weather Inflow .......         0.000         0.000
  Wet Weather Inflow .......         0.130         1.299
  Groundwater Inflow .......         0.000         0.000
  RDII Inflow ..............         0.000         0.000
  External Inflow ..........         0.000         0.000
  External Outflow .........         0.129         1.286
  Flooding Loss ............         0.002         0.016
  Evaporation Loss .........         0.000         0.000
  Exfiltration Loss ........         0.000         0.000
  Initial Stored Volume ....         0.000         0.000
  Final Stored Volume ......         0.000         0.000
  Continuity Error (%) .....        -0.246
  
  
  *************************
  Highest Continuity Errors
  *************************
  Node R0019373 (2.16%)
  Node R0019718 (-1.88%)
  
  
  ***************************
  Time-Step Critical Elements
  ***************************
  None
  
  
  ********************************
  Highest Flow Instability Indexes
  ********************************
  All links are stable.
  
  
  *********************************
  Most Frequent Nonconverging Nodes
  *********************************
  Convergence obtained at all time steps.
  
  
  *************************
  Routing Time Step Summary
  *************************
  Minimum Time Step           :     0.50 sec
  Average Time Step           :     1.00 sec
  Maximum Time Step           :     1.00 sec
  % of Time in Steady State   :     0.00
  Average Iterations per Step :     2.00
  % of Steps Not Converging   :     0.00
  Time Step Frequencies       :
      1.000 -  0.871 sec      :    99.99 %
      0.871 -  0.758 sec      :     0.00 %
      0.758 -  0.660 sec      :     0.00 %
      0.660 -  0.574 sec      :     0.00 %
      0.574 -  0.500 sec      :     0.00 %
  
  
  ***************************
  Subcatchment Runoff Summary
  ***************************
  
  ------------------------------------------------------------------------------------------------------------------------------
                            Total      Total      Total      Total     Imperv       Perv      Total       Total     Peak  Runoff
                           Precip      Runon       Evap      Infil     Runoff     Runoff     Runoff      Runoff   Runoff   Coeff
  Subcatchment                 mm         mm         mm         mm         mm         mm         mm    10^6 ltr      CMS
  ------------------------------------------------------------------------------------------------------------------------------
  EZG_368                   24.10       0.00       0.96      10.52      11.19       3.22      12.73        0.05     0.11   0.528
  EZG_392                   24.10       0.00       0.96      10.36      11.20       3.38      12.90        0.04     0.09   0.535
  EZG_352                   24.10       0.00       0.97      10.76      11.17       2.97      12.46        0.07     0.15   0.517
  EZG_372                   24.10       0.00       0.95       9.80      11.24       3.95      13.51        0.02     0.04   0.560
  EZG_416                   24.10       0.00       0.96      10.29      11.20       3.45      12.98        0.04     0.08   0.539
  EZG_388                   24.10       0.00       0.96      10.59      11.18       3.15      12.65        0.06     0.12   0.525
  EZG_394                   24.10       0.00       0.96      10.25      11.21       3.49      13.01        0.04     0.08   0.540
  EZG_400                   24.10       0.00       0.95      10.21      11.21       3.54      13.07        0.03     0.07   0.542
  EZG_390                   24.10       0.00       0.96      10.34      11.20       3.40      12.92        0.04     0.09   0.536
  EZG_350                   24.10       0.00       0.96      10.59      11.18       3.14      12.65        0.06     0.12   0.525
  EZG_370                   24.10       0.00       0.96      10.42      11.20       3.31      12.83        0.05     0.10   0.532
  EZG_398                   24.10       0.00       0.94       9.62      11.26       4.14      13.71        0.01     0.03   0.569
  EZG_382                   24.10       0.00       0.94       9.56      11.26       4.20      13.78        0.01     0.03   0.572
  EZG_374                   24.10       0.00       1.16       8.38      13.41       3.28      14.68        0.06     0.12   0.609
  EZG_412                   24.10       0.00       0.93       9.17      11.31       4.62      14.23        0.01     0.01   0.590
  EZG_344                   24.10       0.00       0.95      10.19      11.21       3.55      13.08        0.03     0.07   0.543
  EZG_376                   24.10       0.00       0.95      10.04      11.22       3.71      13.24        0.03     0.06   0.550
  EZG_356                   24.10       0.00       0.97      10.82      11.17       2.91      12.40        0.08     0.16   0.515
  EZG_386                   24.10       0.00       0.98      10.97      11.16       2.76      12.24        0.10     0.19   0.508
  EZG_380                   24.10       0.00       0.96      10.48      11.19       3.26      12.77        0.05     0.10   0.530
  EZG_378                   24.10       0.00       0.96      10.39      11.20       3.34      12.86        0.04     0.09   0.534
  EZG_414                   24.10       0.00       0.94       9.55      11.27       4.21      13.79        0.01     0.03   0.572
  EZG_402                   24.10       0.00       0.96      10.36      11.20       3.38      12.90        0.04     0.09   0.535
  EZG_358                   24.10       0.00       0.97      10.81      11.17       2.92      12.41        0.08     0.16   0.515
  EZG_364                   24.10       0.00       0.97      10.81      11.17       2.92      12.41        0.08     0.16   0.515
  EZG_410                   24.10       0.00       0.95      10.07      11.22       3.67      13.21        0.03     0.06   0.548
  EZG_366                   24.10       0.00       0.95      10.16      11.21       3.59      13.12        0.03     0.07   0.544
  EZG_18259                 24.10       0.00       0.95      10.15      11.21       3.59      13.12        0.03     0.07   0.545
  EZG_18258                 24.10       0.00       0.94       9.37      11.28       4.40      13.99        0.01     0.02   0.581
  EZG_346                   24.10       0.00       0.94      10.64      10.97       3.30      12.63        0.05     0.10   0.524
  EZG_348                   24.10       0.00       0.93      10.32      11.00       3.64      12.98        0.03     0.06   0.539
  
  
  ******************
  Node Depth Summary
  ******************
  
  ---------------------------------------------------------------------------------
                                 Average  Maximum  Maximum  Time of Max    Reported
                                   Depth    Depth      HGL   Occurrence   Max Depth
  Node                 Type       Meters   Meters   Meters  days hr:min      Meters
  ---------------------------------------------------------------------------------
  R0019466             JUNCTION     0.00     1.28    70.73     0  02:10        1.27
  R0019468             JUNCTION     0.00     1.12    70.43     0  02:10        1.10
  R0019831             JUNCTION     0.00     1.57    70.74     0  02:09        1.57
  R0019825             JUNCTION     0.00     1.50    70.34     0  02:09        1.50
  R0019843             JUNCTION     0.00     0.78    68.41     0  02:12        0.77
  R0019368             JUNCTION     0.00     1.36    68.15     0  02:11        1.21
  R0019369             JUNCTION     0.00     0.70    67.29     0  02:11        0.67
  R0019370             JUNCTION     0.00     0.58    66.48     0  02:11        0.55
  R0019345             JUNCTION     0.00     0.88    70.78     0  02:10        0.88
  R0019346             JUNCTION     0.00     0.66    70.46     0  02:10        0.64
  R0043600             JUNCTION     0.00     0.55    70.22     0  02:10        0.54
  R0019203             JUNCTION     0.00     0.56    70.10     0  02:11        0.55
  R0043594             JUNCTION     0.00     0.40    70.13     0  02:11        0.40
  R0021458             JUNCTION     0.00     0.48    70.13     0  02:11        0.48
  R0019202             JUNCTION     0.00     0.53    70.11     0  02:10        0.53
  R0019373             JUNCTION     0.00     1.03    70.70     0  02:10        1.00
  R0019254             JUNCTION     0.00     1.74    71.78     0  02:10        1.62
  R0019716             JUNCTION     0.00     0.62    69.63     0  02:10        0.62
  R0019946             JUNCTION     0.00     0.88    69.50     0  02:11        0.88
  R0013935             JUNCTION     0.00     1.25    70.08     0  02:10        1.20
  R0019939             JUNCTION     0.00     1.28    69.85     0  02:10        1.22
  R0019944             JUNCTION     0.00     0.54    68.82     0  02:11        0.53
  R0043703             JUNCTION     0.00     0.66    69.26     0  02:11        0.66
  R0019945             JUNCTION     0.00     0.67    69.07     0  02:11        0.66
  R0039621             JUNCTION     0.00     0.28    69.85     0  02:10        0.27
  R0019838             JUNCTION     0.00     0.39    69.85     0  02:10        0.37
  R0039606             JUNCTION     0.00     0.52    70.11     0  02:10        0.51
  R0019204             JUNCTION     0.00     0.00    69.91     0  00:00        0.00
  R0019205             JUNCTION     0.00     0.00    69.62     0  00:00        0.00
  R0019849             JUNCTION     0.00     1.10    69.62     0  02:10        1.10
  R0019371             JUNCTION     0.00     0.00    70.41     0  00:00        0.00
  R0019718             JUNCTION     0.00     0.64    70.06     0  02:10        0.64
  R0021442             JUNCTION     0.00     2.05    72.10     0  02:09        2.05
  R0019247             JUNCTION     0.00     1.04    70.92     0  02:10        1.03
  R0019719             JUNCTION     0.00     0.51    70.19     0  02:11        0.51
  R0019767             JUNCTION     0.00     0.62    65.35     0  02:11        0.61
  R0019768             JUNCTION     0.00     0.51    64.28     0  02:12        0.51
  R0021453             JUNCTION     0.00     0.20    70.15     0  02:12        0.20
  R0019839             JUNCTION     0.00     0.36    69.75     0  02:10        0.35
  R0019717             JUNCTION     0.00     0.59    69.93     0  02:10        0.58
  R0019252             JUNCTION     0.00     1.94    72.13     0  02:10        1.84
  R0019721             JUNCTION     0.00     0.68    70.55     0  02:10        0.62
  R0019942             JUNCTION     0.00     1.11    69.76     0  02:10        1.11
  R0019206             JUNCTION     0.00     0.00    69.07     0  00:00        0.00
  R0019840             JUNCTION     0.00     0.65    69.62     0  02:10        0.57
  R0043702             JUNCTION     0.00     0.85    69.55     0  02:10        0.77
  R0019723             JUNCTION     0.00     0.57    70.65     0  02:10        0.51
  R0019724             JUNCTION     0.00     0.49    70.65     0  02:10        0.41
  R0021433             JUNCTION     0.00     2.15    72.54     0  02:09        2.15
  R0021435             JUNCTION     0.00     2.11    72.29     0  02:09        2.11
  R0019769             OUTFALL      0.00     0.51    63.89     0  02:12        0.50
  
  
  *******************
  Node Inflow Summary
  *******************
  
  -------------------------------------------------------------------------------------------------
                                  Maximum  Maximum                  Lateral       Total        Flow
                                  Lateral    Total  Time of Max      Inflow      Inflow     Balance
                                   Inflow   Inflow   Occurrence      Volume      Volume       Error
  Node                 Type           CMS      CMS  days hr:min    10^6 ltr    10^6 ltr     Percent
  -------------------------------------------------------------------------------------------------
  R0019466             JUNCTION     0.110    0.110     0  02:10      0.0526      0.0725       0.243
  R0019468             JUNCTION     0.069    0.150     0  02:10      0.0314         0.1      -0.179
  R0019831             JUNCTION     0.089    0.089     0  02:10      0.0418      0.0418       0.172
  R0019825             JUNCTION     0.090    0.179     0  02:10      0.0419      0.0836       0.239
  R0019843             JUNCTION     0.000    2.045     0  02:11           0        1.29      -0.001
  R0019368             JUNCTION     0.000    2.090     0  02:11           0        1.29      -0.010
  R0019369             JUNCTION     0.000    2.034     0  02:11           0        1.29      -0.044
  R0019370             JUNCTION     0.000    2.031     0  02:11           0        1.29       0.001
  R0019345             JUNCTION     0.000    0.156     0  02:10           0      0.0818      -0.055
  R0019346             JUNCTION     0.014    0.250     0  02:10     0.00568       0.139       0.058
  R0043600             JUNCTION     0.000    0.213     0  02:09           0       0.146      -0.143
  R0019203             JUNCTION     0.029    0.590     0  02:10      0.0122       0.371       0.000
  R0043594             JUNCTION     0.148    0.218     0  02:10      0.0736       0.107      -0.219
  R0021458             JUNCTION     0.120    0.299     0  02:10      0.0581       0.165      -0.011
  R0019202             JUNCTION     0.042    0.374     0  02:10      0.0183       0.212      -0.554
  R0019373             JUNCTION     0.097    0.121     0  02:10       0.046      0.0495       2.203
  R0019254             JUNCTION     0.082    0.161     0  02:10      0.0378      0.0818       0.068
  R0019716             JUNCTION     0.119    1.206     0  02:10      0.0577       0.747      -0.042
  R0019946             JUNCTION     0.000    1.207     0  02:10           0       0.747       0.042
  R0013935             JUNCTION     0.078    0.078     0  02:10      0.0361      0.0361       0.151
  R0019939             JUNCTION     0.032    0.103     0  02:10      0.0136      0.0496      -0.163
  R0019944             JUNCTION     0.074    1.515     0  02:11      0.0337        0.95       0.008
  R0043703             JUNCTION     0.088    1.276     0  02:11      0.0409       0.788      -0.005
  R0019945             JUNCTION     0.000    1.473     0  02:11           0       0.916      -0.005
  R0039621             JUNCTION     0.000    0.018     0  02:08           0     0.00183       1.706
  R0019838             JUNCTION     0.158    0.158     0  02:10      0.0795      0.0813      -0.041
  R0039606             JUNCTION     0.000    0.245     0  02:13           0       0.165       0.163
  R0019204             JUNCTION     0.000    0.000     0  00:00           0           0       0.000 ltr
  R0019205             JUNCTION     0.000    0.000     0  00:00           0           0       0.000 ltr
  R0019849             JUNCTION     0.000    0.211     0  02:10           0       0.129       0.051
  R0019371             JUNCTION     0.000    0.000     0  00:00           0           0       0.000 ltr
  R0019718             JUNCTION     0.104    0.663     0  02:11      0.0497        0.42      -1.849
  R0021442             JUNCTION     0.116    0.188     0  02:10      0.0557       0.122       0.103
  R0019247             JUNCTION     0.059    0.215     0  02:10      0.0264       0.146       0.063
  R0019719             JUNCTION     0.062    0.295     0  02:10      0.0277       0.167       0.944
  R0019767             JUNCTION     0.000    2.035     0  02:11           0        1.29      -0.007
  R0019768             JUNCTION     0.000    2.054     0  02:12           0        1.29       0.025
  R0021453             JUNCTION     0.072    0.072     0  02:10      0.0331      0.0331      -0.037
  R0019839             JUNCTION     0.156    0.288     0  02:10      0.0786       0.158       0.016
  R0019717             JUNCTION     0.189    1.101     0  02:11      0.0978       0.692       0.358
  R0019252             JUNCTION     0.094    0.094     0  02:10      0.0441      0.0441      -0.015
  R0019721             JUNCTION     0.029    0.106     0  02:09       0.012       0.052       0.267
  R0019942             JUNCTION     0.000    0.126     0  02:09           0      0.0788      -0.419
  R0019206             JUNCTION     0.000    0.000     0  00:00           0           0       0.000 ltr
  R0019840             JUNCTION     0.000    0.433     0  02:10           0       0.258      -0.009
  R0043702             JUNCTION     0.157    0.576     0  02:10      0.0787       0.337       0.437
  R0019723             JUNCTION     0.069    0.087     0  02:09      0.0312      0.0398      -0.464
  R0019724             JUNCTION     0.021    0.026     0  02:10     0.00857     0.00862      -0.636
  R0021433             JUNCTION     0.097    0.097     0  02:10       0.046       0.046      -0.018
  R0021435             JUNCTION     0.064    0.135     0  02:10      0.0289       0.073      -0.207
  R0019769             OUTFALL      0.000    2.074     0  02:12           0        1.29       0.000
  
  
  **********************
  Node Surcharge Summary
  **********************
  
  Surcharging occurs when water rises above the top of the highest conduit.
  ---------------------------------------------------------------------
                                               Max. Height   Min. Depth
                                   Hours       Above Crown    Below Rim
  Node                 Type      Surcharged         Meters       Meters
  ---------------------------------------------------------------------
  R0019466             JUNCTION        0.22          0.984        1.526
  R0019468             JUNCTION        0.21          0.824        1.606
  R0019831             JUNCTION        0.13          1.274        0.086
  R0019825             JUNCTION        0.18          1.200        0.000
  R0019368             JUNCTION        0.05          0.459        0.591
  R0019345             JUNCTION        0.12          0.579        1.171
  R0019346             JUNCTION        0.06          0.256        1.484
  R0043600             JUNCTION        0.09          0.153        2.427
  R0019373             JUNCTION        0.12          0.727        1.773
  R0019254             JUNCTION        0.15          1.444        0.386
  R0013935             JUNCTION        0.13          0.950        0.370
  R0019939             JUNCTION        0.21          0.977        0.643
  R0019849             JUNCTION        0.23          0.804        1.126
  R0021442             JUNCTION        0.23          1.750        0.000
  R0019247             JUNCTION        0.13          0.637        1.223
  R0019719             JUNCTION        0.01          0.014        1.786
  R0019252             JUNCTION        0.13          1.640        0.000
  R0019721             JUNCTION        0.06          0.276        1.284
  R0019942             JUNCTION        0.19          0.815        0.835
  R0019840             JUNCTION        0.02          0.152        2.418
  R0043702             JUNCTION        0.04          0.349        2.561
  R0019723             JUNCTION        0.02          0.170        1.150
  R0019724             JUNCTION        0.02          0.192        1.258
  R0021433             JUNCTION        0.17          1.850        0.000
  R0021435             JUNCTION        0.22          1.810        0.000
  
  
  *********************
  Node Flooding Summary
  *********************
  
  Flooding refers to all water that overflows a node, whether it ponds or not.
  --------------------------------------------------------------------------
                                                             Total   Maximum
                                 Maximum   Time of Max       Flood    Ponded
                        Hours       Rate    Occurrence      Volume     Depth
  Node                 Flooded       CMS   days hr:min    10^6 ltr    Meters
  --------------------------------------------------------------------------
  R0019825                0.04     0.062      0  02:10       0.005     0.000
  R0021442                0.03     0.032      0  02:10       0.002     0.000
  R0019252                0.01     0.007      0  02:10       0.000     0.000
  R0021433                0.03     0.028      0  02:09       0.002     0.000
  R0021435                0.05     0.063      0  02:10       0.007     0.000
  
  
  ***********************
  Outfall Loading Summary
  ***********************
  
  -----------------------------------------------------------
                         Flow       Avg       Max       Total
                         Freq      Flow      Flow      Volume
  Outfall Node           Pcnt       CMS       CMS    10^6 ltr
  -----------------------------------------------------------
  R0019769               3.90     0.122     2.074       1.286
  -----------------------------------------------------------
  System                 3.90     0.122     2.074       1.286
  
  
  ********************
  Link Flow Summary
  ********************
  
  -----------------------------------------------------------------------------
                                 Maximum  Time of Max   Maximum    Max/    Max/
                                  |Flow|   Occurrence   |Veloc|    Full    Full
  Link                 Type          CMS  days hr:min     m/sec    Flow   Depth
  -----------------------------------------------------------------------------
  H0014431             CONDUIT     0.088     0  02:08      1.25    1.64    1.00
  H0014433             CONDUIT     0.090     0  02:10      1.27    1.15    1.00
  H0014352             CONDUIT     2.090     0  02:11      3.29    0.86    1.00
  H0014373             CONDUIT     2.031     0  02:11      4.25    0.94    0.70
  H0017981             CONDUIT     0.156     0  02:10      2.21    4.42    1.00
  H0017755             CONDUIT     0.213     0  02:09      1.70    1.73    1.00
  H0017791             CONDUIT     0.182     0  02:10      0.72    0.26    0.49
  H0017357             CONDUIT     0.120     0  02:10      1.69    1.91    1.00
  H0018216             CONDUIT     0.156     0  02:10      2.20    2.83    1.00
  H0016792             CONDUIT     1.207     0  02:10      2.16    0.69    0.83
  H0019507             CONDUIT     0.073     0  02:10      1.03    1.01    1.00
  H0019998             CONDUIT     1.537     0  02:11      3.49    0.61    0.73
  H0019576             CONDUIT     1.285     0  02:11      2.54    0.86    0.74
  H0020087             CONDUIT     0.018     0  02:08      0.32    0.08    0.66
  H0020211             CONDUIT     1.217     0  02:11      2.11    3.03    0.86
  H0018982             CONDUIT     0.245     0  02:13      0.91    0.39    0.56
  H0018753             CONDUIT     0.043     0  02:07      0.69    0.61    1.00
  H0018845             CONDUIT     0.000     0  00:00      0.00    0.00    0.00
  H0018863             CONDUIT     0.100     0  02:10      1.41    2.34    1.00
  H0019156             CONDUIT     0.000     0  00:00      0.00    0.00    0.00
  H0018929             CONDUIT     0.591     0  02:11      1.36    0.51    0.66
  H0018440             CONDUIT     0.159     0  02:09      2.25    2.85    1.00
  H0018456             CONDUIT     0.250     0  02:10      1.99    1.52    1.00
  H0018968             CONDUIT     2.054     0  02:12      4.97    0.79    0.62
  H0022036             CONDUIT     0.071     0  02:10      0.67    0.05    0.32
  H0021806             CONDUIT     0.213     0  02:09      1.70    1.89    1.00
  H0022111             CONDUIT     0.141     0  02:10      0.92    1.01    0.74
  H0021440             CONDUIT     1.110     0  02:10      2.51    0.72    0.67
  H0021704             CONDUIT     0.671     0  02:11      1.57    1.28    0.66
  H0020521             CONDUIT     0.082     0  02:10      1.17    1.67    1.00
  H0020755             CONDUIT     0.095     0  02:10      0.75    1.04    1.00
  H0020530             CONDUIT     2.034     0  02:11      3.23    1.74    1.00
  H0020618             CONDUIT     1.468     0  02:11      3.27    0.91    0.67
  H0021163             CONDUIT     0.126     0  02:09      1.79    2.11    1.00
  H0020497             CONDUIT     0.000     0  00:00      0.00    0.00    1.00
  H0024325             CONDUIT     0.286     0  02:10      1.87    0.85    1.00
  H0023585             CONDUIT     0.534     0  02:10      2.72    1.23    1.00
  H0024098             CONDUIT     0.207     0  02:10      2.93    2.42    1.00
  H0024235             CONDUIT     0.292     0  02:11      1.53    1.20    0.95
  H0024282             CONDUIT     0.000     0  00:00      0.00    0.00    0.00
  H0024308             CONDUIT     2.074     0  02:12      5.62    0.61    0.56
  H0024498             CONDUIT     0.148     0  02:10      2.09    2.29    1.00
  H0026990             CONDUIT     0.078     0  02:09      0.90    0.59    1.00
  H0041650             CONDUIT     0.371     0  02:11      0.96    0.43    0.60
  H0041011             CONDUIT     0.119     0  02:09      1.69    1.18    1.00
  H0045103             CONDUIT     0.257     0  02:11      0.83    0.32    0.58
  H0045104             CONDUIT     2.035     0  02:11      4.62    0.72    0.66
  H0045105             CONDUIT     0.026     0  02:10      0.44    0.45    1.00
  H0045106             CONDUIT     0.429     0  02:10      2.37    0.58    1.00
  H0045107             CONDUIT     0.072     0  02:10      1.01    1.18    1.00
  H0045108             CONDUIT     0.090     0  02:12      1.28    1.63    1.00
  
  
  ***************************
  Flow Classification Summary
  ***************************
  
  -------------------------------------------------------------------------------------
                      Adjusted    ---------- Fraction of Time in Flow Class ---------- 
                       /Actual         Up    Down  Sub   Sup   Up    Down  Norm  Inlet 
  Conduit               Length    Dry  Dry   Dry   Crit  Crit  Crit  Crit  Ltd   Ctrl  
  -------------------------------------------------------------------------------------
  H0014431                1.00   0.03  0.00  0.00  0.97  0.00  0.00  0.00  0.97  0.00
  H0014433                1.00   0.03  0.00  0.00  0.97  0.00  0.00  0.00  0.97  0.00
  H0014352                1.00   0.03  0.00  0.00  0.96  0.02  0.00  0.00  0.97  0.00
  H0014373                1.00   0.03  0.00  0.00  0.94  0.03  0.00  0.00  0.93  0.00
  H0017981                1.00   0.03  0.00  0.00  0.00  0.00  0.00  0.97  0.00  0.00
  H0017755                1.00   0.03  0.00  0.00  0.00  0.00  0.00  0.97  0.00  0.00
  H0017791                1.00   0.03  0.00  0.00  0.97  0.00  0.00  0.00  0.97  0.00
  H0017357                1.00   0.03  0.97  0.00  0.00  0.00  0.00  0.00  0.97  0.00
  H0018216                1.00   0.03  0.93  0.00  0.04  0.00  0.00  0.00  0.97  0.00
  H0016792                1.00   0.03  0.93  0.00  0.04  0.00  0.00  0.00  0.97  0.00
  H0019507                1.00   0.03  0.00  0.00  0.97  0.00  0.00  0.00  0.97  0.00
  H0019998                1.00   0.03  0.00  0.00  0.94  0.03  0.00  0.00  0.05  0.00
  H0019576                1.00   0.03  0.00  0.00  0.96  0.01  0.00  0.00  0.05  0.00
  H0020087                1.00   0.03  0.96  0.00  0.01  0.00  0.00  0.00  0.97  0.00
  H0020211                1.00   0.03  0.00  0.00  0.97  0.00  0.00  0.00  0.92  0.00
  H0018982                1.00   0.03  0.00  0.00  0.97  0.00  0.00  0.00  0.95  0.00
  H0018753                1.00   0.03  0.00  0.00  0.97  0.00  0.00  0.00  0.97  0.00
  H0018845                1.00   1.00  0.00  0.00  0.00  0.00  0.00  0.00  0.00  0.00
  H0018863                1.00   0.03  0.00  0.00  0.97  0.00  0.00  0.00  0.97  0.00
  H0019156                1.00   1.00  0.00  0.00  0.00  0.00  0.00  0.00  0.00  0.00
  H0018929                1.00   0.03  0.93  0.00  0.04  0.00  0.00  0.00  0.97  0.00
  H0018440                1.00   0.03  0.00  0.00  0.97  0.00  0.00  0.00  0.97  0.00
  H0018456                1.00   0.03  0.00  0.00  0.97  0.00  0.00  0.00  0.97  0.00
  H0018968                1.00   0.03  0.92  0.00  0.01  0.04  0.00  0.00  0.94  0.00
  H0022036                1.00   0.03  0.00  0.00  0.01  0.00  0.00  0.97  0.00  0.00
  H0021806                1.00   0.03  0.93  0.00  0.04  0.00  0.00  0.00  0.97  0.00
  H0022111                1.00   0.03  0.00  0.00  0.97  0.00  0.00  0.00  0.00  0.00
  H0021440                1.00   0.03  0.00  0.00  0.96  0.02  0.00  0.00  0.02  0.00
  H0021704                1.00   0.03  0.00  0.00  0.00  0.00  0.00  0.97  0.00  0.00
  H0020521                1.00   0.03  0.00  0.00  0.97  0.00  0.00  0.00  0.97  0.00
  H0020755                1.00   0.03  0.94  0.00  0.03  0.00  0.00  0.00  0.97  0.00
  H0020530                1.00   0.03  0.00  0.00  0.96  0.01  0.00  0.00  0.00  0.00
  H0020618                1.00   0.03  0.00  0.00  0.95  0.02  0.00  0.00  0.93  0.00
  H0021163                1.00   0.03  0.00  0.00  0.97  0.00  0.00  0.00  0.95  0.00
  H0020497                1.20   0.03  0.97  0.00  0.00  0.00  0.00  0.00  0.00  0.00
  H0024325                1.00   0.03  0.00  0.00  0.96  0.02  0.00  0.00  0.95  0.00
  H0023585                1.00   0.03  0.00  0.00  0.00  0.00  0.00  0.97  0.00  0.00
  H0024098                1.00   0.03  0.94  0.00  0.04  0.00  0.00  0.00  0.97  0.00
  H0024235                1.00   0.03  0.00  0.00  0.00  0.00  0.00  0.97  0.00  0.00
  H0024282                1.00   1.00  0.00  0.00  0.00  0.00  0.00  0.00  0.00  0.00
  H0024308                1.00   0.03  0.00  0.00  0.92  0.05  0.00  0.00  0.01  0.00
  H0024498                1.00   0.03  0.00  0.00  0.00  0.00  0.00  0.97  0.00  0.00
  H0026990                1.00   0.03  0.00  0.00  0.97  0.00  0.00  0.00  0.97  0.00
  H0041650                1.00   0.96  0.01  0.00  0.03  0.00  0.00  0.00  0.97  0.00
  H0041011                1.00   0.03  0.00  0.00  0.97  0.00  0.00  0.00  0.97  0.00
  H0045103                1.00   0.03  0.00  0.00  0.97  0.00  0.00  0.00  0.95  0.00
  H0045104                1.00   0.03  0.00  0.00  0.93  0.04  0.00  0.00  0.05  0.00
  H0045105                1.00   0.03  0.00  0.00  0.97  0.00  0.00  0.00  0.97  0.00
  H0045106                1.00   0.03  0.93  0.00  0.02  0.02  0.00  0.00  0.97  0.00
  H0045107                1.00   0.03  0.00  0.00  0.97  0.00  0.00  0.00  0.97  0.00
  H0045108                1.00   0.03  0.00  0.00  0.97  0.00  0.00  0.00  0.97  0.00
  
  
  *************************
  Conduit Surcharge Summary
  *************************
  
  ----------------------------------------------------------------------------
                                                           Hours        Hours 
                         --------- Hours Full --------   Above Full   Capacity
  Conduit                Both Ends  Upstream  Dnstream   Normal Flow   Limited
  ----------------------------------------------------------------------------
  H0014431                    0.21      0.22      0.21      0.23         0.21
  H0014433                    0.13      0.13      0.18      0.02         0.01
  H0014352                    0.01      0.01      0.05      0.01         0.01
  H0017981                    0.07      0.12      0.07      0.24         0.10
  H0017755                    0.05      0.09      0.05      0.15         0.08
  H0017357                    0.01      0.01      0.12      0.05         0.01
  H0018216                    0.12      0.15      0.12      0.18         0.14
  H0019507                    0.13      0.13      0.21      0.01         0.01
  H0020211                    0.01      0.01      0.01      0.21         0.01
  H0018753                    0.12      0.12      0.22      0.01         0.01
  H0018863                    0.21      0.21      0.23      0.13         0.12
  H0018440                    0.18      0.23      0.18      0.25         0.22
  H0018456                    0.05      0.06      0.05      0.09         0.06
  H0021806                    0.09      0.13      0.09      0.16         0.12
  H0022111                    0.01      0.01      0.01      0.01         0.01
  H0021704                    0.01      0.01      0.01      0.08         0.01
  H0020521                    0.12      0.12      0.15      0.08         0.08
  H0020755                    0.06      0.06      0.06      0.01         0.01
  H0020530                    0.01      0.05      0.01      0.12         0.04
  H0021163                    0.17      0.18      0.19      0.18         0.16
  H0024325                    0.01      0.01      0.02      0.01         0.01
  H0023585                    0.01      0.04      0.01      0.06         0.04
  H0024098                    0.22      0.23      0.24      0.21         0.19
  H0024235                    0.01      0.01      0.01      0.05         0.01
  H0024498                    0.03      0.21      0.03      0.24         0.16
  H0026990                    0.02      0.02      0.06      0.01         0.01
  H0041011                    0.19      0.19      0.23      0.07         0.07
  H0045105                    0.02      0.02      0.03      0.01         0.01
  H0045106                    0.02      0.02      0.04      0.01         0.01
  H0045107                    0.17      0.17      0.22      0.04         0.04
  H0045108                    0.22      0.22      0.23      0.15         0.15
  

  Analysis begun on:  Fri Mar 22 15:56:31 2024
  Analysis ended on:  Fri Mar 22 15:56:41 2024
  Total elapsed time: 00:00:10