
  EPA STORM WATER MANAGEMENT MODEL - VERSION 5.2 (Build 5.2.4)
  PYSWMM TOOLKIT API - VERSION v1.0 (2023-11-27)
  ------------------------------------------------------------

  Gievenbeck_2019-03-11 03 25 00_hN3 25 
  
  ****************
  Analysis Options
  ****************
  Flow Units ............... CMS
  Process Models:
    Rainfall/Runoff ........ YES
    RDII ................... NO
    Snowmelt ............... NO
    Groundwater ............ NO
    Flow Routing ........... YES
    Ponding Allowed ........ NO
    Water Quality .......... NO
  Infiltration Method ...... HORTON
  Flow Routing Method ...... DYNWAVE
  Surcharge Method ......... SLOT
  Starting Date ............ 01/01/2024 00:00:00
  Ending Date .............. 01/04/2024 04:00:00
  Antecedent Dry Days ...... 14.0
  Report Time Step ......... 00:01:00
  Wet Time Step ............ 00:01:00
  Dry Time Step ............ 00:01:00
  Routing Time Step ........ 1.00 sec
  Variable Time Step ....... YES
  Maximum Trials ........... 8
  Number of Threads ........ 1
  Head Tolerance ........... 0.001500 m
  
  
  **************************        Volume         Depth
  Runoff Quantity Continuity     hectare-m            mm
  **************************     ---------       -------
  Total Precipitation ......         0.033         3.250
  Evaporation Loss .........         0.011         1.068
  Infiltration Loss ........         0.017         1.700
  Surface Runoff ...........         0.005         0.483
  Final Storage ............         0.000         0.000
  Continuity Error (%) .....         0.000
  
  
  **************************        Volume        Volume
  Flow Routing Continuity        hectare-m      10^6 ltr
  **************************     ---------     ---------
  Dry Weather Inflow .......         0.000         0.000
  Wet Weather Inflow .......         0.005         0.049
  Groundwater Inflow .......         0.000         0.000
  RDII Inflow ..............         0.000         0.000
  External Inflow ..........         0.000         0.000
  External Outflow .........         0.005         0.049
  Flooding Loss ............         0.000         0.000
  Evaporation Loss .........         0.000         0.000
  Exfiltration Loss ........         0.000         0.000
  Initial Stored Volume ....         0.000         0.000
  Final Stored Volume ......         0.000         0.000
  Continuity Error (%) .....         0.000
  
  
  ***************************
  Time-Step Critical Elements
  ***************************
  None
  
  
  ********************************
  Highest Flow Instability Indexes
  ********************************
  All links are stable.
  
  
  *********************************
  Most Frequent Nonconverging Nodes
  *********************************
  Convergence obtained at all time steps.
  
  
  *************************
  Routing Time Step Summary
  *************************
  Minimum Time Step           :     0.50 sec
  Average Time Step           :     1.00 sec
  Maximum Time Step           :     1.00 sec
  % of Time in Steady State   :     0.00
  Average Iterations per Step :     2.00
  % of Steps Not Converging   :     0.00
  Time Step Frequencies       :
      1.000 -  0.871 sec      :   100.00 %
      0.871 -  0.758 sec      :     0.00 %
      0.758 -  0.660 sec      :     0.00 %
      0.660 -  0.574 sec      :     0.00 %
      0.574 -  0.500 sec      :     0.00 %
  
  
  ***************************
  Subcatchment Runoff Summary
  ***************************
  
  ------------------------------------------------------------------------------------------------------------------------------
                            Total      Total      Total      Total     Imperv       Perv      Total       Total     Peak  Runoff
                           Precip      Runon       Evap      Infil     Runoff     Runoff     Runoff      Runoff   Runoff   Coeff
  Subcatchment                 mm         mm         mm         mm         mm         mm         mm    10^6 ltr      CMS
  ------------------------------------------------------------------------------------------------------------------------------
  EZG_368                    3.25       0.00       1.06       1.71       0.56       0.00       0.48        0.00     0.00   0.148
  EZG_392                    3.25       0.00       1.06       1.71       0.57       0.00       0.48        0.00     0.00   0.148
  EZG_352                    3.25       0.00       1.07       1.71       0.56       0.00       0.48        0.00     0.00   0.146
  EZG_372                    3.25       0.00       1.05       1.71       0.58       0.00       0.49        0.00     0.00   0.151
  EZG_416                    3.25       0.00       1.06       1.71       0.57       0.00       0.48        0.00     0.00   0.149
  EZG_388                    3.25       0.00       1.06       1.71       0.56       0.00       0.48        0.00     0.00   0.147
  EZG_394                    3.25       0.00       1.06       1.71       0.57       0.00       0.48        0.00     0.00   0.149
  EZG_400                    3.25       0.00       1.06       1.71       0.57       0.00       0.48        0.00     0.00   0.149
  EZG_390                    3.25       0.00       1.06       1.71       0.57       0.00       0.48        0.00     0.00   0.148
  EZG_350                    3.25       0.00       1.06       1.71       0.56       0.00       0.48        0.00     0.00   0.147
  EZG_370                    3.25       0.00       1.06       1.71       0.57       0.00       0.48        0.00     0.00   0.148
  EZG_398                    3.25       0.00       1.05       1.71       0.58       0.00       0.49        0.00     0.00   0.151
  EZG_382                    3.25       0.00       1.05       1.71       0.58       0.00       0.49        0.00     0.00   0.152
  EZG_374                    3.25       0.00       1.28       1.40       0.67       0.00       0.57        0.00     0.00   0.176
  EZG_412                    3.25       0.00       1.04       1.71       0.59       0.00       0.50        0.00     0.00   0.153
  EZG_344                    3.25       0.00       1.06       1.71       0.57       0.00       0.48        0.00     0.00   0.149
  EZG_376                    3.25       0.00       1.05       1.71       0.57       0.00       0.49        0.00     0.00   0.150
  EZG_356                    3.25       0.00       1.07       1.71       0.56       0.00       0.47        0.00     0.00   0.146
  EZG_386                    3.25       0.00       1.07       1.71       0.55       0.00       0.47        0.00     0.00   0.145
  EZG_380                    3.25       0.00       1.06       1.71       0.56       0.00       0.48        0.00     0.00   0.148
  EZG_378                    3.25       0.00       1.06       1.71       0.57       0.00       0.48        0.00     0.00   0.148
  EZG_414                    3.25       0.00       1.05       1.71       0.58       0.00       0.49        0.00     0.00   0.152
  EZG_402                    3.25       0.00       1.06       1.71       0.57       0.00       0.48        0.00     0.00   0.148
  EZG_358                    3.25       0.00       1.07       1.71       0.56       0.00       0.47        0.00     0.00   0.146
  EZG_364                    3.25       0.00       1.07       1.71       0.56       0.00       0.47        0.00     0.00   0.146
  EZG_410                    3.25       0.00       1.05       1.71       0.57       0.00       0.49        0.00     0.00   0.150
  EZG_366                    3.25       0.00       1.05       1.71       0.57       0.00       0.48        0.00     0.00   0.149
  EZG_18259                  3.25       0.00       1.05       1.71       0.57       0.00       0.48        0.00     0.00   0.149
  EZG_18258                  3.25       0.00       1.04       1.71       0.58       0.00       0.50        0.00     0.00   0.152
  EZG_346                    3.25       0.00       1.04       1.74       0.55       0.00       0.47        0.00     0.00   0.145
  EZG_348                    3.25       0.00       1.03       1.74       0.56       0.00       0.48        0.00     0.00   0.147
  
  
  ******************
  Node Depth Summary
  ******************
  
  ---------------------------------------------------------------------------------
                                 Average  Maximum  Maximum  Time of Max    Reported
                                   Depth    Depth      HGL   Occurrence   Max Depth
  Node                 Type       Meters   Meters   Meters  days hr:min      Meters
  ---------------------------------------------------------------------------------
  R0019466             JUNCTION     0.00     0.03    69.48     0  08:15        0.03
  R0019468             JUNCTION     0.00     0.04    69.35     0  08:16        0.04
  R0019831             JUNCTION     0.00     0.02    69.19     0  08:15        0.02
  R0019825             JUNCTION     0.00     0.03    68.87     0  08:15        0.03
  R0019843             JUNCTION     0.00     0.05    67.68     0  08:18        0.05
  R0019368             JUNCTION     0.00     0.08    66.87     0  08:19        0.08
  R0019369             JUNCTION     0.00     0.06    66.65     0  08:19        0.06
  R0019370             JUNCTION     0.00     0.05    65.95     0  08:20        0.05
  R0019345             JUNCTION     0.00     0.04    69.94     0  08:17        0.04
  R0019346             JUNCTION     0.00     0.03    69.83     0  08:17        0.03
  R0043600             JUNCTION     0.00     0.04    69.71     0  08:18        0.04
  R0019203             JUNCTION     0.00     0.04    69.58     0  08:19        0.04
  R0043594             JUNCTION     0.00     0.03    69.76     0  08:15        0.03
  R0021458             JUNCTION     0.00     0.04    69.69     0  08:16        0.04
  R0019202             JUNCTION     0.00     0.04    69.62     0  08:18        0.04
  R0019373             JUNCTION     0.00     0.02    69.69     0  08:15        0.02
  R0019254             JUNCTION     0.00     0.03    70.07     0  08:16        0.03
  R0019716             JUNCTION     0.00     0.05    69.06     0  08:18        0.05
  R0019946             JUNCTION     0.00     0.10    68.72     0  08:19        0.10
  R0013935             JUNCTION     0.00     0.02    68.85     0  08:15        0.02
  R0019939             JUNCTION     0.00     0.03    68.60     0  08:16        0.03
  R0019944             JUNCTION     0.00     0.04    68.32     0  08:18        0.04
  R0043703             JUNCTION     0.00     0.05    68.65     0  08:19        0.05
  R0019945             JUNCTION     0.00     0.05    68.45     0  08:18        0.05
  R0039621             JUNCTION     0.00     0.00    69.57     0  00:00        0.00
  R0019838             JUNCTION     0.00     0.03    69.49     0  08:15        0.03
  R0039606             JUNCTION     0.00     0.04    69.63     0  08:18        0.04
  R0019204             JUNCTION     0.00     0.00    69.91     0  00:00        0.00
  R0019205             JUNCTION     0.00     0.00    69.62     0  00:00        0.00
  R0019849             JUNCTION     0.00     0.03    68.55     0  08:17        0.03
  R0019371             JUNCTION     0.00     0.00    70.41     0  00:00        0.00
  R0019718             JUNCTION     0.00     0.07    69.49     0  08:20        0.07
  R0021442             JUNCTION     0.00     0.04    70.09     0  08:16        0.04
  R0019247             JUNCTION     0.00     0.04    69.92     0  08:17        0.04
  R0019719             JUNCTION     0.00     0.04    69.72     0  08:17        0.04
  R0019767             JUNCTION     0.00     0.05    64.78     0  08:20        0.05
  R0019768             JUNCTION     0.00     0.04    63.81     0  08:21        0.04
  R0021453             JUNCTION     0.00     0.02    69.97     0  08:15        0.02
  R0019839             JUNCTION     0.00     0.03    69.42     0  08:16        0.03
  R0019717             JUNCTION     0.00     0.05    69.39     0  08:18        0.05
  R0019252             JUNCTION     0.00     0.02    70.21     0  08:15        0.02
  R0019721             JUNCTION     0.00     0.03    69.90     0  08:16        0.03
  R0019942             JUNCTION     0.00     0.02    68.67     0  08:16        0.02
  R0019206             JUNCTION     0.00     0.00    69.07     0  00:00        0.00
  R0019840             JUNCTION     0.00     0.03    69.00     0  08:16        0.03
  R0043702             JUNCTION     0.00     0.04    68.74     0  08:16        0.04
  R0019723             JUNCTION     0.00     0.02    70.10     0  08:15        0.02
  R0019724             JUNCTION     0.00     0.01    70.17     0  08:15        0.01
  R0021433             JUNCTION     0.00     0.02    70.41     0  08:15        0.02
  R0021435             JUNCTION     0.00     0.03    70.21     0  08:16        0.03
  R0019769             OUTFALL      0.00     0.05    63.43     0  08:21        0.05
  
  
  *******************
  Node Inflow Summary
  *******************
  
  -------------------------------------------------------------------------------------------------
                                  Maximum  Maximum                  Lateral       Total        Flow
                                  Lateral    Total  Time of Max      Inflow      Inflow     Balance
                                   Inflow   Inflow   Occurrence      Volume      Volume       Error
  Node                 Type           CMS      CMS  days hr:min    10^6 ltr    10^6 ltr     Percent
  -------------------------------------------------------------------------------------------------
  R0019466             JUNCTION     0.001    0.002     0  08:15     0.00198     0.00371      -0.064
  R0019468             JUNCTION     0.001    0.002     0  08:15     0.00116     0.00487       0.098
  R0019831             JUNCTION     0.001    0.001     0  08:15     0.00156     0.00156      -0.179
  R0019825             JUNCTION     0.001    0.001     0  08:15     0.00157     0.00313      -0.001
  R0019843             JUNCTION     0.000    0.017     0  08:18           0      0.0488      -0.026
  R0019368             JUNCTION     0.000    0.017     0  08:18           0      0.0489       0.004
  R0019369             JUNCTION     0.000    0.016     0  08:19           0      0.0489       0.006
  R0019370             JUNCTION     0.000    0.016     0  08:20           0      0.0489       0.002
  R0019345             JUNCTION     0.000    0.001     0  08:16           0     0.00307       0.331
  R0019346             JUNCTION     0.000    0.002     0  08:16    0.000199     0.00514       0.078
  R0043600             JUNCTION     0.000    0.002     0  08:17           0     0.00593       0.288
  R0019203             JUNCTION     0.000    0.005     0  08:18    0.000436      0.0132      -0.085
  R0043594             JUNCTION     0.001    0.002     0  08:15     0.00281     0.00403      -0.297
  R0021458             JUNCTION     0.001    0.002     0  08:15      0.0022     0.00624      -0.069
  R0019202             JUNCTION     0.000    0.002     0  08:18    0.000662     0.00689      -0.027
  R0019373             JUNCTION     0.001    0.001     0  08:15     0.00172     0.00172      -0.090
  R0019254             JUNCTION     0.001    0.001     0  08:15     0.00141     0.00306      -0.229
  R0019716             JUNCTION     0.001    0.009     0  08:17     0.00218      0.0272      -0.084
  R0019946             JUNCTION     0.000    0.009     0  08:18           0      0.0272       0.111
  R0013935             JUNCTION     0.001    0.001     0  08:15     0.00134     0.00134      -0.165
  R0019939             JUNCTION     0.000    0.001     0  08:15    0.000487     0.00183      -0.071
  R0019944             JUNCTION     0.001    0.012     0  08:18     0.00125      0.0349       0.004
  R0043703             JUNCTION     0.001    0.009     0  08:19     0.00153      0.0287      -0.022
  R0019945             JUNCTION     0.000    0.011     0  08:18           0      0.0337       0.011
  R0039621             JUNCTION     0.000    0.000     0  00:00           0           0       0.000 ltr
  R0019838             JUNCTION     0.001    0.001     0  08:15     0.00304     0.00304       0.004
  R0039606             JUNCTION     0.000    0.002     0  08:17           0     0.00625       0.267
  R0019204             JUNCTION     0.000    0.000     0  00:00           0           0       0.000 ltr
  R0019205             JUNCTION     0.000    0.000     0  00:00           0           0       0.000 ltr
  R0019849             JUNCTION     0.000    0.002     0  08:16           0     0.00496       0.024
  R0019371             JUNCTION     0.000    0.000     0  00:00           0           0       0.000 ltr
  R0019718             JUNCTION     0.001    0.005     0  08:18     0.00187      0.0151       0.092
  R0021442             JUNCTION     0.001    0.002     0  08:15     0.00217     0.00494      -0.039
  R0019247             JUNCTION     0.000    0.002     0  08:15     0.00097     0.00591      -0.225
  R0019719             JUNCTION     0.000    0.002     0  08:16     0.00102     0.00616       0.008
  R0019767             JUNCTION     0.000    0.016     0  08:20           0      0.0489       0.004
  R0019768             JUNCTION     0.000    0.016     0  08:21           0      0.0489       0.009
  R0021453             JUNCTION     0.001    0.001     0  08:15     0.00122     0.00122       0.011
  R0019839             JUNCTION     0.001    0.002     0  08:15       0.003     0.00604      -0.058
  R0019717             JUNCTION     0.002    0.008     0  08:18     0.00377       0.025      -0.001
  R0019252             JUNCTION     0.001    0.001     0  08:15     0.00165     0.00165      -0.155
  R0019721             JUNCTION     0.000    0.001     0  08:15    0.000429     0.00189       0.000
  R0019942             JUNCTION     0.000    0.001     0  08:16           0     0.00313       0.084
  R0019206             JUNCTION     0.000    0.000     0  00:00           0           0       0.000 ltr
  R0019840             JUNCTION     0.000    0.004     0  08:16           0      0.0109       0.030
  R0043702             JUNCTION     0.001    0.005     0  08:16     0.00301      0.0139       0.001
  R0019723             JUNCTION     0.001    0.001     0  08:15     0.00115     0.00146      -0.220
  R0019724             JUNCTION     0.000    0.000     0  08:15    0.000303    0.000303      -0.014
  R0021433             JUNCTION     0.001    0.001     0  08:15     0.00172     0.00172      -0.174
  R0021435             JUNCTION     0.000    0.001     0  08:15     0.00106     0.00278       0.078
  R0019769             OUTFALL      0.000    0.016     0  08:21           0      0.0488       0.000
  
  
  **********************
  Node Surcharge Summary
  **********************
  
  No nodes were surcharged.
  
  
  *********************
  Node Flooding Summary
  *********************
  
  No nodes were flooded.
  
  
  ***********************
  Outfall Loading Summary
  ***********************
  
  -----------------------------------------------------------
                         Flow       Avg       Max       Total
                         Freq      Flow      Flow      Volume
  Outfall Node           Pcnt       CMS       CMS    10^6 ltr
  -----------------------------------------------------------
  R0019769               4.34     0.004     0.016       0.049
  -----------------------------------------------------------
  System                 4.34     0.004     0.016       0.049
  
  
  ********************
  Link Flow Summary
  ********************
  
  -----------------------------------------------------------------------------
                                 Maximum  Time of Max   Maximum    Max/    Max/
                                  |Flow|   Occurrence   |Veloc|    Full    Full
  Link                 Type          CMS  days hr:min     m/sec    Flow   Depth
  -----------------------------------------------------------------------------
  H0014431             CONDUIT     0.001     0  08:15      0.32    0.03    0.12
  H0014433             CONDUIT     0.001     0  08:15      0.23    0.01    0.09
  H0014352             CONDUIT     0.017     0  08:18      0.81    0.01    0.07
  H0014373             CONDUIT     0.016     0  08:20      1.08    0.01    0.06
  H0017981             CONDUIT     0.001     0  08:17      0.28    0.03    0.11
  H0017755             CONDUIT     0.002     0  08:19      0.41    0.02    0.09
  H0017791             CONDUIT     0.002     0  08:15      0.18    0.00    0.04
  H0017357             CONDUIT     0.000     0  00:00      0.00    0.00    0.04
  H0018216             CONDUIT     0.001     0  08:16      0.26    0.02    0.12
  H0016792             CONDUIT     0.009     0  08:18      0.39    0.01    0.08
  H0019507             CONDUIT     0.001     0  08:15      0.23    0.01    0.08
  H0019998             CONDUIT     0.012     0  08:18      0.87    0.00    0.05
  H0019576             CONDUIT     0.009     0  08:19      0.63    0.01    0.06
  H0020087             CONDUIT     0.000     0  00:00      0.00    0.00    0.03
  H0020211             CONDUIT     0.009     0  08:19      0.37    0.02    0.08
  H0018982             CONDUIT     0.002     0  08:17      0.24    0.00    0.04
  H0018753             CONDUIT     0.001     0  08:15      0.22    0.01    0.09
  H0018845             CONDUIT     0.000     0  00:00      0.00    0.00    0.00
  H0018863             CONDUIT     0.001     0  08:16      0.21    0.02    0.10
  H0019156             CONDUIT     0.000     0  00:00      0.00    0.00    0.00
  H0018929             CONDUIT     0.005     0  08:19      0.28    0.00    0.06
  H0018440             CONDUIT     0.002     0  08:16      0.36    0.03    0.13
  H0018456             CONDUIT     0.002     0  08:17      0.40    0.01    0.08
  H0018968             CONDUIT     0.016     0  08:21      1.22    0.01    0.05
  H0022036             CONDUIT     0.001     0  08:15      0.37    0.00    0.01
  H0021806             CONDUIT     0.002     0  08:17      0.36    0.02    0.10
  H0022111             CONDUIT     0.001     0  08:16      0.22    0.01    0.06
  H0021440             CONDUIT     0.008     0  08:18      0.66    0.01    0.05
  H0021704             CONDUIT     0.005     0  08:20      0.31    0.01    0.06
  H0020521             CONDUIT     0.001     0  08:15      0.21    0.01    0.09
  H0020755             CONDUIT     0.001     0  08:16      0.19    0.01    0.07
  H0020530             CONDUIT     0.016     0  08:19      0.77    0.01    0.07
  H0020618             CONDUIT     0.011     0  08:18      0.82    0.01    0.05
  H0021163             CONDUIT     0.001     0  08:16      0.39    0.02    0.09
  H0020497             CONDUIT     0.000     0  00:00      0.00    0.00    0.09
  H0024325             CONDUIT     0.002     0  08:16      0.51    0.01    0.06
  H0023585             CONDUIT     0.005     0  08:17      0.75    0.01    0.08
  H0024098             CONDUIT     0.002     0  08:17      0.42    0.02    0.14
  H0024235             CONDUIT     0.002     0  08:18      0.42    0.01    0.06
  H0024282             CONDUIT     0.000     0  00:00      0.00    0.00    0.00
  H0024308             CONDUIT     0.016     0  08:21      1.37    0.00    0.05
  H0024498             CONDUIT     0.002     0  08:16      0.43    0.03    0.11
  H0026990             CONDUIT     0.001     0  08:15      0.22    0.00    0.06
  H0041650             CONDUIT     0.002     0  08:18      0.26    0.00    0.04
  H0041011             CONDUIT     0.001     0  08:16      0.39    0.01    0.09
  H0045103             CONDUIT     0.002     0  08:18      0.28    0.00    0.04
  H0045104             CONDUIT     0.016     0  08:20      1.15    0.01    0.06
  H0045105             CONDUIT     0.000     0  08:15      0.12    0.00    0.05
  H0045106             CONDUIT     0.004     0  08:16      0.76    0.01    0.06
  H0045107             CONDUIT     0.001     0  08:15      0.24    0.01    0.09
  H0045108             CONDUIT     0.001     0  08:16      0.26    0.02    0.11
  
  
  ***************************
  Flow Classification Summary
  ***************************
  
  -------------------------------------------------------------------------------------
                      Adjusted    ---------- Fraction of Time in Flow Class ---------- 
                       /Actual         Up    Down  Sub   Sup   Up    Down  Norm  Inlet 
  Conduit               Length    Dry  Dry   Dry   Crit  Crit  Crit  Crit  Ltd   Ctrl  
  -------------------------------------------------------------------------------------
  H0014431                1.00   0.10  0.00  0.00  0.90  0.00  0.00  0.00  0.90  0.00
  H0014433                1.00   0.10  0.00  0.00  0.90  0.00  0.00  0.00  0.90  0.00
  H0014352                1.00   0.10  0.00  0.00  0.88  0.02  0.00  0.00  0.90  0.00
  H0014373                1.00   0.10  0.00  0.00  0.86  0.04  0.00  0.00  0.84  0.00
  H0017981                1.00   0.10  0.00  0.00  0.00  0.00  0.00  0.90  0.00  0.00
  H0017755                1.00   0.10  0.00  0.00  0.00  0.00  0.00  0.90  0.00  0.00
  H0017791                1.00   0.10  0.00  0.00  0.90  0.00  0.00  0.00  0.90  0.00
  H0017357                1.00   0.10  0.90  0.00  0.00  0.00  0.00  0.00  0.00  0.00
  H0018216                1.00   0.10  0.85  0.00  0.04  0.00  0.00  0.00  0.90  0.00
  H0016792                1.00   0.10  0.85  0.00  0.05  0.00  0.00  0.00  0.90  0.00
  H0019507                1.00   0.10  0.00  0.00  0.90  0.00  0.00  0.00  0.90  0.00
  H0019998                1.00   0.10  0.00  0.00  0.86  0.04  0.00  0.00  0.05  0.00
  H0019576                1.00   0.10  0.00  0.00  0.89  0.01  0.00  0.00  0.05  0.00
  H0020087                1.00   0.10  0.90  0.00  0.00  0.00  0.00  0.00  0.00  0.00
  H0020211                1.00   0.10  0.00  0.00  0.90  0.00  0.00  0.00  0.84  0.00
  H0018982                1.00   0.10  0.00  0.00  0.90  0.00  0.00  0.00  0.87  0.00
  H0018753                1.00   0.10  0.00  0.00  0.90  0.00  0.00  0.00  0.90  0.00
  H0018845                1.00   1.00  0.00  0.00  0.00  0.00  0.00  0.00  0.00  0.00
  H0018863                1.00   0.10  0.00  0.00  0.90  0.00  0.00  0.00  0.90  0.00
  H0019156                1.00   1.00  0.00  0.00  0.00  0.00  0.00  0.00  0.00  0.00
  H0018929                1.00   0.10  0.85  0.00  0.05  0.00  0.00  0.00  0.90  0.00
  H0018440                1.00   0.10  0.00  0.00  0.90  0.00  0.00  0.00  0.90  0.00
  H0018456                1.00   0.10  0.00  0.00  0.90  0.00  0.00  0.00  0.90  0.00
  H0018968                1.00   0.10  0.84  0.00  0.02  0.04  0.00  0.00  0.86  0.00
  H0022036                1.00   0.10  0.00  0.00  0.00  0.00  0.00  0.90  0.00  0.00
  H0021806                1.00   0.10  0.85  0.00  0.05  0.00  0.00  0.00  0.89  0.00
  H0022111                1.00   0.10  0.00  0.00  0.90  0.00  0.00  0.00  0.00  0.00
  H0021440                1.00   0.10  0.00  0.00  0.88  0.02  0.00  0.00  0.01  0.00
  H0021704                1.00   0.10  0.00  0.00  0.00  0.00  0.00  0.90  0.00  0.00
  H0020521                1.00   0.10  0.00  0.00  0.90  0.00  0.00  0.00  0.90  0.00
  H0020755                1.00   0.10  0.86  0.00  0.04  0.00  0.00  0.00  0.90  0.00
  H0020530                1.00   0.10  0.00  0.00  0.88  0.02  0.00  0.00  0.00  0.00
  H0020618                1.00   0.10  0.00  0.00  0.87  0.03  0.00  0.00  0.85  0.00
  H0021163                1.00   0.10  0.00  0.00  0.90  0.00  0.00  0.00  0.87  0.00
  H0020497                1.20   0.10  0.90  0.00  0.00  0.00  0.00  0.00  0.00  0.00
  H0024325                1.00   0.10  0.00  0.00  0.88  0.02  0.00  0.00  0.87  0.00
  H0023585                1.00   0.10  0.00  0.00  0.00  0.00  0.00  0.90  0.00  0.00
  H0024098                1.00   0.10  0.86  0.00  0.04  0.00  0.00  0.00  0.90  0.00
  H0024235                1.00   0.10  0.00  0.00  0.00  0.00  0.00  0.90  0.00  0.00
  H0024282                1.00   1.00  0.00  0.00  0.00  0.00  0.00  0.00  0.00  0.00
  H0024308                1.00   0.10  0.00  0.00  0.84  0.05  0.00  0.00  0.01  0.00
  H0024498                1.00   0.10  0.00  0.00  0.00  0.00  0.00  0.90  0.00  0.00
  H0026990                1.00   0.10  0.00  0.00  0.90  0.00  0.00  0.00  0.90  0.00
  H0041650                1.00   0.95  0.01  0.00  0.04  0.00  0.00  0.00  0.90  0.00
  H0041011                1.00   0.10  0.00  0.00  0.90  0.00  0.00  0.00  0.90  0.00
  H0045103                1.00   0.10  0.00  0.00  0.90  0.00  0.00  0.00  0.88  0.00
  H0045104                1.00   0.10  0.00  0.00  0.86  0.04  0.00  0.00  0.05  0.00
  H0045105                1.00   0.10  0.00  0.00  0.90  0.00  0.00  0.00  0.90  0.00
  H0045106                1.00   0.10  0.85  0.00  0.02  0.03  0.00  0.00  0.90  0.00
  H0045107                1.00   0.10  0.00  0.00  0.90  0.00  0.00  0.00  0.90  0.00
  H0045108                1.00   0.10  0.00  0.00  0.90  0.00  0.00  0.00  0.90  0.00
  
  
  *************************
  Conduit Surcharge Summary
  *************************
  
  No conduits were surcharged.
  

  Analysis begun on:  Fri Mar 22 15:54:30 2024
  Analysis ended on:  Fri Mar 22 15:54:39 2024
  Total elapsed time: 00:00:09