
  EPA STORM WATER MANAGEMENT MODEL - VERSION 5.2 (Build 5.2.4)
  PYSWMM TOOLKIT API - VERSION v1.0 (2023-11-27)
  ------------------------------------------------------------

  Gievenbeck_e2_T3D360 
  
  ****************
  Analysis Options
  ****************
  Flow Units ............... CMS
  Process Models:
    Rainfall/Runoff ........ YES
    RDII ................... NO
    Snowmelt ............... NO
    Groundwater ............ NO
    Flow Routing ........... YES
    Ponding Allowed ........ NO
    Water Quality .......... NO
  Infiltration Method ...... HORTON
  Flow Routing Method ...... DYNWAVE
  Surcharge Method ......... SLOT
  Starting Date ............ 01/01/2024 00:00:00
  Ending Date .............. 01/04/2024 04:00:00
  Antecedent Dry Days ...... 14.0
  Report Time Step ......... 00:01:00
  Wet Time Step ............ 00:01:00
  Dry Time Step ............ 00:01:00
  Routing Time Step ........ 1.00 sec
  Variable Time Step ....... YES
  Maximum Trials ........... 8
  Number of Threads ........ 1
  Head Tolerance ........... 0.001500 m
  
  
  **************************        Volume         Depth
  Runoff Quantity Continuity     hectare-m            mm
  **************************     ---------       -------
  Total Precipitation ......         0.333        32.850
  Evaporation Loss .........         0.010         0.950
  Infiltration Loss ........         0.178        17.602
  Surface Runoff ...........         0.145        14.328
  Final Storage ............         0.000         0.000
  Continuity Error (%) .....        -0.093
  
  
  **************************        Volume        Volume
  Flow Routing Continuity        hectare-m      10^6 ltr
  **************************     ---------     ---------
  Dry Weather Inflow .......         0.000         0.000
  Wet Weather Inflow .......         0.145         1.450
  Groundwater Inflow .......         0.000         0.000
  RDII Inflow ..............         0.000         0.000
  External Inflow ..........         0.000         0.000
  External Outflow .........         0.145         1.451
  Flooding Loss ............         0.000         0.000
  Evaporation Loss .........         0.000         0.000
  Exfiltration Loss ........         0.000         0.000
  Initial Stored Volume ....         0.000         0.000
  Final Stored Volume ......         0.000         0.000
  Continuity Error (%) .....        -0.019
  
  
  *************************
  Highest Continuity Errors
  *************************
  Node R0019373 (1.42%)
  
  
  ***************************
  Time-Step Critical Elements
  ***************************
  None
  
  
  ********************************
  Highest Flow Instability Indexes
  ********************************
  All links are stable.
  
  
  *********************************
  Most Frequent Nonconverging Nodes
  *********************************
  Convergence obtained at all time steps.
  
  
  *************************
  Routing Time Step Summary
  *************************
  Minimum Time Step           :     0.50 sec
  Average Time Step           :     1.00 sec
  Maximum Time Step           :     1.00 sec
  % of Time in Steady State   :     0.00
  Average Iterations per Step :     2.00
  % of Steps Not Converging   :     0.00
  Time Step Frequencies       :
      1.000 -  0.871 sec      :   100.00 %
      0.871 -  0.758 sec      :     0.00 %
      0.758 -  0.660 sec      :     0.00 %
      0.660 -  0.574 sec      :     0.00 %
      0.574 -  0.500 sec      :     0.00 %
  
  
  ***************************
  Subcatchment Runoff Summary
  ***************************
  
  ------------------------------------------------------------------------------------------------------------------------------
                            Total      Total      Total      Total     Imperv       Perv      Total       Total     Peak  Runoff
                           Precip      Runon       Evap      Infil     Runoff     Runoff     Runoff      Runoff   Runoff   Coeff
  Subcatchment                 mm         mm         mm         mm         mm         mm         mm    10^6 ltr      CMS
  ------------------------------------------------------------------------------------------------------------------------------
  EZG_368                   32.85       0.00       0.94      17.72      15.50       1.03      14.21        0.06     0.06   0.433
  EZG_392                   32.85       0.00       0.94      17.65      15.51       1.11      14.29        0.05     0.05   0.435
  EZG_352                   32.85       0.00       0.95      17.83      15.49       0.92      14.09        0.08     0.09   0.429
  EZG_372                   32.85       0.00       0.93      17.37      15.52       1.40      14.59        0.02     0.02   0.444
  EZG_416                   32.85       0.00       0.94      17.62      15.51       1.15      14.33        0.04     0.05   0.436
  EZG_388                   32.85       0.00       0.95      17.75      15.50       1.00      14.18        0.06     0.07   0.432
  EZG_394                   32.85       0.00       0.94      17.60      15.51       1.16      14.34        0.04     0.05   0.437
  EZG_400                   32.85       0.00       0.94      17.58      15.51       1.19      14.37        0.04     0.04   0.437
  EZG_390                   32.85       0.00       0.94      17.64      15.51       1.12      14.30        0.05     0.05   0.435
  EZG_350                   32.85       0.00       0.95      17.76      15.50       1.00      14.18        0.07     0.07   0.432
  EZG_370                   32.85       0.00       0.94      17.68      15.50       1.08      14.26        0.05     0.06   0.434
  EZG_398                   32.85       0.00       0.93      17.27      15.53       1.50      14.70        0.01     0.02   0.448
  EZG_382                   32.85       0.00       0.93      17.23      15.53       1.54      14.74        0.01     0.02   0.449
  EZG_374                   32.85       0.00       1.14      14.64      18.60       1.30      17.10        0.06     0.07   0.521
  EZG_412                   32.85       0.00       0.92      16.98      15.54       1.80      15.01        0.01     0.01   0.457
  EZG_344                   32.85       0.00       0.94      17.57      15.51       1.19      14.38        0.04     0.04   0.438
  EZG_376                   32.85       0.00       0.94      17.49      15.52       1.27      14.46        0.03     0.03   0.440
  EZG_356                   32.85       0.00       0.95      17.86      15.49       0.90      14.07        0.09     0.10   0.428
  EZG_386                   32.85       0.00       0.95      17.92      15.49       0.83      14.00        0.11     0.12   0.426
  EZG_380                   32.85       0.00       0.94      17.71      15.50       1.05      14.23        0.06     0.06   0.433
  EZG_378                   32.85       0.00       0.94      17.67      15.51       1.09      14.27        0.05     0.05   0.434
  EZG_414                   32.85       0.00       0.93      17.22      15.53       1.55      14.75        0.01     0.02   0.449
  EZG_402                   32.85       0.00       0.94      17.65      15.51       1.11      14.29        0.05     0.05   0.435
  EZG_358                   32.85       0.00       0.95      17.85      15.49       0.90      14.07        0.09     0.09   0.428
  EZG_364                   32.85       0.00       0.95      17.85      15.49       0.90      14.07        0.09     0.09   0.428
  EZG_410                   32.85       0.00       0.94      17.51      15.51       1.25      14.44        0.03     0.04   0.440
  EZG_366                   32.85       0.00       0.94      17.55      15.51       1.21      14.39        0.03     0.04   0.438
  EZG_18259                 32.85       0.00       0.94      17.55      15.51       1.21      14.40        0.03     0.04   0.438
  EZG_18258                 32.85       0.00       0.93      17.11      15.53       1.66      14.87        0.01     0.01   0.453
  EZG_346                   32.85       0.00       0.92      17.99      15.20       1.05      13.97        0.05     0.06   0.425
  EZG_348                   32.85       0.00       0.92      17.83      15.20       1.21      14.14        0.03     0.04   0.430
  
  
  ******************
  Node Depth Summary
  ******************
  
  ---------------------------------------------------------------------------------
                                 Average  Maximum  Maximum  Time of Max    Reported
                                   Depth    Depth      HGL   Occurrence   Max Depth
  Node                 Type       Meters   Meters   Meters  days hr:min      Meters
  ---------------------------------------------------------------------------------
  R0019466             JUNCTION     0.00     0.69    70.14     0  04:05        0.69
  R0019468             JUNCTION     0.01     0.61    69.92     0  04:05        0.60
  R0019831             JUNCTION     0.00     0.66    69.83     0  04:05        0.58
  R0019825             JUNCTION     0.00     0.88    69.72     0  04:05        0.81
  R0019843             JUNCTION     0.01     0.47    68.10     0  04:06        0.47
  R0019368             JUNCTION     0.01     0.71    67.50     0  04:06        0.69
  R0019369             JUNCTION     0.01     0.51    67.10     0  04:06        0.51
  R0019370             JUNCTION     0.01     0.43    66.33     0  04:07        0.42
  R0019345             JUNCTION     0.01     0.40    70.30     0  04:05        0.39
  R0019346             JUNCTION     0.00     0.32    70.12     0  04:05        0.31
  R0043600             JUNCTION     0.00     0.38    70.05     0  04:05        0.37
  R0019203             JUNCTION     0.01     0.41    69.95     0  04:05        0.41
  R0043594             JUNCTION     0.00     0.28    70.01     0  04:05        0.27
  R0021458             JUNCTION     0.01     0.34    69.99     0  04:05        0.34
  R0019202             JUNCTION     0.00     0.38    69.96     0  04:05        0.38
  R0019373             JUNCTION     0.00     0.46    70.13     0  04:05        0.46
  R0019254             JUNCTION     0.00     0.69    70.73     0  04:05        0.67
  R0019716             JUNCTION     0.01     0.45    69.46     0  04:06        0.45
  R0019946             JUNCTION     0.01     0.62    69.24     0  04:06        0.62
  R0013935             JUNCTION     0.00     0.50    69.33     0  04:05        0.47
  R0019939             JUNCTION     0.00     0.69    69.26     0  04:05        0.65
  R0019944             JUNCTION     0.01     0.39    68.67     0  04:06        0.38
  R0043703             JUNCTION     0.01     0.48    69.08     0  04:06        0.47
  R0019945             JUNCTION     0.01     0.49    68.89     0  04:06        0.48
  R0039621             JUNCTION     0.00     0.18    69.75     0  04:05        0.17
  R0019838             JUNCTION     0.00     0.28    69.74     0  04:05        0.28
  R0039606             JUNCTION     0.00     0.37    69.96     0  04:05        0.37
  R0019204             JUNCTION     0.00     0.00    69.91     0  00:00        0.00
  R0019205             JUNCTION     0.00     0.00    69.62     0  00:00        0.00
  R0019849             JUNCTION     0.00     0.67    69.19     0  04:05        0.64
  R0019371             JUNCTION     0.00     0.00    70.41     0  00:00        0.00
  R0019718             JUNCTION     0.01     0.50    69.92     0  04:05        0.49
  R0021442             JUNCTION     0.01     1.50    71.55     0  04:05        1.43
  R0019247             JUNCTION     0.01     0.63    70.51     0  04:05        0.63
  R0019719             JUNCTION     0.00     0.32    70.00     0  04:05        0.32
  R0019767             JUNCTION     0.01     0.45    65.18     0  04:06        0.44
  R0019768             JUNCTION     0.01     0.38    64.15     0  04:06        0.37
  R0021453             JUNCTION     0.00     0.11    70.06     0  04:05        0.11
  R0019839             JUNCTION     0.00     0.26    69.65     0  04:05        0.26
  R0019717             JUNCTION     0.01     0.44    69.78     0  04:05        0.44
  R0019252             JUNCTION     0.00     0.70    70.89     0  04:05        0.68
  R0019721             JUNCTION     0.00     0.28    70.15     0  04:05        0.27
  R0019942             JUNCTION     0.00     0.64    69.29     0  04:05        0.59
  R0019206             JUNCTION     0.00     0.00    69.07     0  00:00        0.00
  R0019840             JUNCTION     0.00     0.23    69.20     0  04:05        0.23
  R0043702             JUNCTION     0.00     0.35    69.05     0  04:05        0.35
  R0019723             JUNCTION     0.00     0.17    70.25     0  04:05        0.17
  R0019724             JUNCTION     0.00     0.10    70.26     0  04:05        0.10
  R0021433             JUNCTION     0.00     1.53    71.92     0  04:05        1.42
  R0021435             JUNCTION     0.00     1.62    71.80     0  04:05        1.51
  R0019769             OUTFALL      0.01     0.38    63.76     0  04:06        0.37
  
  
  *******************
  Node Inflow Summary
  *******************
  
  -------------------------------------------------------------------------------------------------
                                  Maximum  Maximum                  Lateral       Total        Flow
                                  Lateral    Total  Time of Max      Inflow      Inflow     Balance
                                   Inflow   Inflow   Occurrence      Volume      Volume       Error
  Node                 Type           CMS      CMS  days hr:min    10^6 ltr    10^6 ltr     Percent
  -------------------------------------------------------------------------------------------------
  R0019466             JUNCTION     0.065    0.083     0  04:02      0.0587       0.103       0.114
  R0019468             JUNCTION     0.040    0.109     0  04:05      0.0345       0.137      -0.032
  R0019831             JUNCTION     0.052    0.052     0  04:05      0.0463      0.0463       0.106
  R0019825             JUNCTION     0.052    0.096     0  04:04      0.0464      0.0927       0.189
  R0019843             JUNCTION     0.000    1.267     0  04:06           0        1.45      -0.002
  R0019368             JUNCTION     0.000    1.269     0  04:06           0        1.45       0.000
  R0019369             JUNCTION     0.000    1.355     0  04:06           0        1.45       0.001
  R0019370             JUNCTION     0.000    1.300     0  04:07           0        1.45       0.001
  R0019345             JUNCTION     0.000    0.097     0  04:05           0      0.0906      -0.025
  R0019346             JUNCTION     0.008    0.159     0  04:05     0.00599       0.153       0.009
  R0043600             JUNCTION     0.000    0.172     0  04:05           0       0.176      -0.076
  R0019203             JUNCTION     0.017    0.396     0  04:05       0.013         0.4       0.001
  R0043594             JUNCTION     0.089    0.129     0  04:05      0.0833        0.12      -0.026
  R0021458             JUNCTION     0.071    0.186     0  04:05      0.0651       0.185      -0.008
  R0019202             JUNCTION     0.024    0.217     0  04:05      0.0197       0.211      -0.291
  R0019373             JUNCTION     0.057    0.057     0  04:05      0.0511      0.0513       1.442
  R0019254             JUNCTION     0.048    0.098     0  04:05      0.0417      0.0907       0.053
  R0019716             JUNCTION     0.071    0.764     0  04:06      0.0646       0.816      -0.014
  R0019946             JUNCTION     0.000    0.767     0  04:06           0       0.816       0.002
  R0013935             JUNCTION     0.046    0.046     0  04:05      0.0398      0.0398       0.065
  R0019939             JUNCTION     0.018    0.061     0  04:04      0.0146      0.0543      -0.049
  R0019944             JUNCTION     0.043    0.946     0  04:06       0.037        1.05       0.009
  R0043703             JUNCTION     0.051    0.806     0  04:06      0.0452       0.861       0.013
  R0019945             JUNCTION     0.000    0.925     0  04:06           0        1.01      -0.011
  R0039621             JUNCTION     0.000    0.005     0  04:01           0     0.00105       0.843
  R0019838             JUNCTION     0.095    0.095     0  04:05      0.0901      0.0912      -0.010
  R0039606             JUNCTION     0.000    0.160     0  04:05           0       0.185       0.044
  R0019204             JUNCTION     0.000    0.000     0  00:00           0           0       0.000 ltr
  R0019205             JUNCTION     0.000    0.000     0  00:00           0           0       0.000 ltr
  R0019849             JUNCTION     0.000    0.145     0  04:05           0       0.147       0.014
  R0019371             JUNCTION     0.000    0.000     0  00:00           0           0       0.000 ltr
  R0019718             JUNCTION     0.061    0.442     0  04:05      0.0554       0.456      -0.970
  R0021442             JUNCTION     0.071    0.145     0  04:05      0.0648       0.147       0.053
  R0019247             JUNCTION     0.034    0.172     0  04:05      0.0288       0.176       0.051
  R0019719             JUNCTION     0.036    0.186     0  04:05      0.0303       0.183       0.370
  R0019767             JUNCTION     0.000    1.285     0  04:07           0        1.45      -0.006
  R0019768             JUNCTION     0.000    1.271     0  04:06           0        1.45       0.010
  R0021453             JUNCTION     0.042    0.042     0  04:05      0.0364      0.0364      -0.089
  R0019839             JUNCTION     0.094    0.180     0  04:05      0.0891       0.179       0.000
  R0019717             JUNCTION     0.115    0.716     0  04:05       0.112       0.754       0.444
  R0019252             JUNCTION     0.055    0.055     0  04:05      0.0489      0.0489      -0.062
  R0019721             JUNCTION     0.016    0.065     0  04:05      0.0128      0.0562       0.020
  R0019942             JUNCTION     0.000    0.091     0  04:05           0      0.0925      -0.246
  R0019206             JUNCTION     0.000    0.000     0  00:00           0           0       0.000 ltr
  R0019840             JUNCTION     0.000    0.284     0  04:05           0       0.317       0.002
  R0043702             JUNCTION     0.094    0.368     0  04:05      0.0892       0.406      -0.001
  R0019723             JUNCTION     0.040    0.051     0  04:05      0.0342      0.0433      -0.049
  R0019724             JUNCTION     0.012    0.012     0  04:05      0.0091      0.0091      -0.052
  R0021433             JUNCTION     0.057    0.057     0  04:05      0.0508      0.0508      -0.209
  R0021435             JUNCTION     0.037    0.084     0  04:05      0.0314      0.0824      -0.003
  R0019769             OUTFALL      0.000    1.275     0  04:06           0        1.45       0.000
  
  
  **********************
  Node Surcharge Summary
  **********************
  
  Surcharging occurs when water rises above the top of the highest conduit.
  ---------------------------------------------------------------------
                                               Max. Height   Min. Depth
                                   Hours       Above Crown    Below Rim
  Node                 Type      Surcharged         Meters       Meters
  ---------------------------------------------------------------------
  R0019466             JUNCTION        0.10          0.393        2.117
  R0019468             JUNCTION        0.09          0.310        2.120
  R0019831             JUNCTION        0.03          0.361        0.999
  R0019825             JUNCTION        0.07          0.576        0.624
  R0019345             JUNCTION        0.04          0.099        1.651
  R0019373             JUNCTION        0.04          0.165        2.335
  R0019254             JUNCTION        0.06          0.386        1.444
  R0013935             JUNCTION        0.04          0.203        1.117
  R0019939             JUNCTION        0.10          0.389        1.231
  R0019849             JUNCTION        0.11          0.369        1.561
  R0021442             JUNCTION        0.12          1.195        0.555
  R0019247             JUNCTION        0.05          0.234        1.626
  R0019252             JUNCTION        0.04          0.401        1.239
  R0019942             JUNCTION        0.08          0.342        1.308
  R0021433             JUNCTION        0.08          1.234        0.616
  R0021435             JUNCTION        0.10          1.317        0.493
  
  
  *********************
  Node Flooding Summary
  *********************
  
  No nodes were flooded.
  
  
  ***********************
  Outfall Loading Summary
  ***********************
  
  -----------------------------------------------------------
                         Flow       Avg       Max       Total
                         Freq      Flow      Flow      Volume
  Outfall Node           Pcnt       CMS       CMS    10^6 ltr
  -----------------------------------------------------------
  R0019769              10.38     0.051     1.275       1.451
  -----------------------------------------------------------
  System                10.38     0.051     1.275       1.451
  
  
  ********************
  Link Flow Summary
  ********************
  
  -----------------------------------------------------------------------------
                                 Maximum  Time of Max   Maximum    Max/    Max/
                                  |Flow|   Occurrence   |Veloc|    Full    Full
  Link                 Type          CMS  days hr:min     m/sec    Flow   Depth
  -----------------------------------------------------------------------------
  H0014431             CONDUIT     0.071     0  04:02      1.01    1.31    1.00
  H0014433             CONDUIT     0.047     0  04:05      0.72    0.60    1.00
  H0014352             CONDUIT     1.269     0  04:06      2.97    0.52    0.65
  H0014373             CONDUIT     1.300     0  04:07      3.91    0.60    0.52
  H0017981             CONDUIT     0.097     0  04:05      1.37    2.74    1.00
  H0017755             CONDUIT     0.171     0  04:05      1.45    1.39    0.89
  H0017791             CONDUIT     0.117     0  04:05      0.63    0.17    0.34
  H0017357             CONDUIT     0.051     0  04:05      0.72    0.81    1.00
  H0018216             CONDUIT     0.097     0  04:05      1.37    1.76    1.00
  H0016792             CONDUIT     0.767     0  04:06      1.96    0.44    0.59
  H0019507             CONDUIT     0.043     0  04:04      0.70    0.59    1.00
  H0019998             CONDUIT     0.949     0  04:06      3.24    0.38    0.47
  H0019576             CONDUIT     0.812     0  04:06      2.34    0.55    0.54
  H0020087             CONDUIT     0.007     0  04:06      0.14    0.03    0.46
  H0020211             CONDUIT     0.779     0  04:06      1.95    1.94    0.61
  H0018982             CONDUIT     0.160     0  04:05      0.81    0.26    0.40
  H0018753             CONDUIT     0.036     0  04:02      0.62    0.52    1.00
  H0018845             CONDUIT     0.000     0  00:00      0.00    0.00    0.00
  H0018863             CONDUIT     0.056     0  04:05      0.79    1.32    1.00
  H0019156             CONDUIT     0.000     0  00:00      0.00    0.00    0.00
  H0018929             CONDUIT     0.397     0  04:05      1.26    0.34    0.50
  H0018440             CONDUIT     0.142     0  04:05      2.01    2.54    1.00
  H0018456             CONDUIT     0.157     0  04:05      1.47    0.96    0.80
  H0018968             CONDUIT     1.271     0  04:06      4.46    0.49    0.46
  H0022036             CONDUIT     0.041     0  04:05      0.48    0.03    0.20
  H0021806             CONDUIT     0.172     0  04:05      1.37    1.52    1.00
  H0022111             CONDUIT     0.087     0  04:05      0.81    0.62    0.54
  H0021440             CONDUIT     0.720     0  04:06      2.34    0.46    0.49
  H0021704             CONDUIT     0.450     0  04:06      1.47    0.86    0.50
  H0020521             CONDUIT     0.052     0  04:05      0.74    1.05    1.00
  H0020755             CONDUIT     0.057     0  04:05      0.62    0.63    0.75
  H0020530             CONDUIT     1.355     0  04:06      3.01    1.16    0.67
  H0020618             CONDUIT     0.924     0  04:06      3.02    0.57    0.49
  H0021163             CONDUIT     0.091     0  04:05      1.29    1.53    1.00
  H0020497             CONDUIT     0.000     0  00:00      0.00    0.00    0.78
  H0024325             CONDUIT     0.177     0  04:05      1.84    0.53    0.49
  H0023585             CONDUIT     0.367     0  04:05      2.50    0.84    0.71
  H0024098             CONDUIT     0.144     0  04:05      2.04    1.68    1.00
  H0024235             CONDUIT     0.186     0  04:05      1.47    0.76    0.62
  H0024282             CONDUIT     0.000     0  00:00      0.00    0.00    0.00
  H0024308             CONDUIT     1.275     0  04:06      4.97    0.37    0.42
  H0024498             CONDUIT     0.108     0  04:05      1.53    1.67    1.00
  H0026990             CONDUIT     0.049     0  04:05      0.73    0.37    0.55
  H0041650             CONDUIT     0.212     0  04:05      0.80    0.25    0.44
  H0041011             CONDUIT     0.091     0  04:05      1.29    0.90    1.00
  H0045103             CONDUIT     0.167     0  04:06      0.75    0.21    0.42
  H0045104             CONDUIT     1.285     0  04:07      4.19    0.46    0.49
  H0045105             CONDUIT     0.012     0  04:05      0.38    0.20    0.45
  H0045106             CONDUIT     0.284     0  04:05      2.38    0.38    0.59
  H0045107             CONDUIT     0.049     0  04:05      0.72    0.81    1.00
  H0045108             CONDUIT     0.082     0  04:05      1.16    1.47    1.00
  
  
  ***************************
  Flow Classification Summary
  ***************************
  
  -------------------------------------------------------------------------------------
                      Adjusted    ---------- Fraction of Time in Flow Class ---------- 
                       /Actual         Up    Down  Sub   Sup   Up    Down  Norm  Inlet 
  Conduit               Length    Dry  Dry   Dry   Crit  Crit  Crit  Crit  Ltd   Ctrl  
  -------------------------------------------------------------------------------------
  H0014431                1.00   0.03  0.86  0.00  0.10  0.00  0.00  0.00  0.96  0.00
  H0014433                1.00   0.03  0.00  0.00  0.97  0.00  0.00  0.00  0.96  0.00
  H0014352                1.00   0.03  0.00  0.00  0.88  0.08  0.00  0.00  0.96  0.00
  H0014373                1.00   0.03  0.00  0.00  0.87  0.10  0.00  0.00  0.85  0.00
  H0017981                1.00   0.03  0.00  0.00  0.00  0.00  0.00  0.97  0.00  0.00
  H0017755                1.00   0.03  0.00  0.00  0.00  0.00  0.00  0.96  0.00  0.00
  H0017791                1.00   0.03  0.00  0.00  0.97  0.00  0.00  0.00  0.96  0.00
  H0017357                1.00   0.03  0.96  0.00  0.00  0.00  0.00  0.00  0.95  0.00
  H0018216                1.00   0.03  0.86  0.00  0.10  0.00  0.00  0.00  0.96  0.00
  H0016792                1.00   0.03  0.85  0.00  0.11  0.00  0.00  0.00  0.96  0.00
  H0019507                1.00   0.03  0.00  0.00  0.97  0.00  0.00  0.00  0.96  0.00
  H0019998                1.00   0.03  0.00  0.00  0.87  0.10  0.00  0.00  0.11  0.00
  H0019576                1.00   0.03  0.00  0.00  0.89  0.07  0.00  0.00  0.10  0.00
  H0020087                1.00   0.03  0.95  0.00  0.01  0.00  0.00  0.00  0.94  0.00
  H0020211                1.00   0.03  0.00  0.00  0.97  0.00  0.00  0.00  0.85  0.00
  H0018982                1.00   0.03  0.00  0.00  0.97  0.00  0.00  0.00  0.88  0.00
  H0018753                1.00   0.03  0.00  0.00  0.97  0.00  0.00  0.00  0.96  0.00
  H0018845                1.00   1.00  0.00  0.00  0.00  0.00  0.00  0.00  0.00  0.00
  H0018863                1.00   0.03  0.00  0.00  0.97  0.00  0.00  0.00  0.96  0.00
  H0019156                1.00   1.00  0.00  0.00  0.00  0.00  0.00  0.00  0.00  0.00
  H0018929                1.00   0.03  0.86  0.00  0.11  0.00  0.00  0.00  0.96  0.00
  H0018440                1.00   0.03  0.00  0.00  0.97  0.00  0.00  0.00  0.96  0.00
  H0018456                1.00   0.03  0.00  0.00  0.97  0.00  0.00  0.00  0.96  0.00
  H0018968                1.00   0.03  0.85  0.00  0.01  0.10  0.00  0.00  0.87  0.00
  H0022036                1.00   0.03  0.00  0.00  0.02  0.02  0.00  0.92  0.02  0.00
  H0021806                1.00   0.03  0.86  0.00  0.11  0.00  0.00  0.00  0.89  0.00
  H0022111                1.00   0.03  0.00  0.00  0.97  0.00  0.00  0.00  0.00  0.00
  H0021440                1.00   0.03  0.00  0.00  0.89  0.08  0.00  0.00  0.01  0.00
  H0021704                1.00   0.03  0.00  0.00  0.00  0.00  0.00  0.96  0.00  0.00
  H0020521                1.00   0.03  0.00  0.00  0.97  0.00  0.00  0.00  0.96  0.00
  H0020755                1.00   0.03  0.87  0.00  0.10  0.00  0.00  0.00  0.96  0.00
  H0020530                1.00   0.03  0.00  0.00  0.89  0.08  0.00  0.00  0.01  0.00
  H0020618                1.00   0.03  0.00  0.00  0.88  0.09  0.00  0.00  0.87  0.00
  H0021163                1.00   0.03  0.00  0.00  0.96  0.01  0.00  0.00  0.87  0.00
  H0020497                1.20   0.03  0.97  0.00  0.00  0.00  0.00  0.00  0.00  0.00
  H0024325                1.00   0.03  0.00  0.00  0.88  0.08  0.00  0.00  0.87  0.00
  H0023585                1.00   0.03  0.00  0.00  0.00  0.00  0.00  0.97  0.00  0.00
  H0024098                1.00   0.03  0.86  0.00  0.10  0.00  0.00  0.00  0.96  0.00
  H0024235                1.00   0.03  0.00  0.00  0.00  0.00  0.00  0.97  0.00  0.00
  H0024282                1.00   1.00  0.00  0.00  0.00  0.00  0.00  0.00  0.00  0.00
  H0024308                1.00   0.03  0.00  0.00  0.85  0.11  0.00  0.00  0.05  0.00
  H0024498                1.00   0.03  0.00  0.00  0.00  0.00  0.00  0.97  0.00  0.00
  H0026990                1.00   0.03  0.00  0.00  0.97  0.00  0.00  0.00  0.96  0.00
  H0041650                1.00   0.89  0.01  0.00  0.10  0.00  0.00  0.00  0.96  0.00
  H0041011                1.00   0.03  0.00  0.00  0.96  0.00  0.00  0.00  0.96  0.00
  H0045103                1.00   0.03  0.00  0.00  0.97  0.00  0.00  0.00  0.89  0.00
  H0045104                1.00   0.03  0.00  0.00  0.86  0.10  0.00  0.00  0.11  0.00
  H0045105                1.00   0.03  0.00  0.00  0.97  0.00  0.00  0.00  0.97  0.00
  H0045106                1.00   0.03  0.00  0.00  0.88  0.09  0.00  0.00  0.96  0.00
  H0045107                1.00   0.03  0.00  0.00  0.97  0.00  0.00  0.00  0.96  0.00
  H0045108                1.00   0.03  0.00  0.00  0.97  0.00  0.00  0.00  0.96  0.00
  
  
  *************************
  Conduit Surcharge Summary
  *************************
  
  ----------------------------------------------------------------------------
                                                           Hours        Hours 
                         --------- Hours Full --------   Above Full   Capacity
  Conduit                Both Ends  Upstream  Dnstream   Normal Flow   Limited
  ----------------------------------------------------------------------------
  H0014431                    0.09      0.10      0.09      0.12         0.09
  H0014433                    0.03      0.03      0.07      0.01         0.01
  H0017981                    0.01      0.04      0.01      0.13         0.02
  H0017755                    0.01      0.01      0.01      0.06         0.01
  H0017357                    0.01      0.01      0.04      0.01         0.01
  H0018216                    0.04      0.06      0.04      0.09         0.05
  H0019507                    0.04      0.04      0.10      0.01         0.01
  H0020211                    0.01      0.01      0.01      0.11         0.01
  H0018753                    0.04      0.04      0.10      0.01         0.01
  H0018863                    0.10      0.10      0.11      0.04         0.04
  H0018440                    0.08      0.12      0.08      0.15         0.11
  H0021806                    0.01      0.05      0.01      0.07         0.03
  H0020521                    0.04      0.04      0.06      0.01         0.02
  H0020530                    0.01      0.01      0.01      0.03         0.01
  H0021163                    0.07      0.07      0.08      0.08         0.06
  H0024098                    0.11      0.11      0.14      0.08         0.08
  H0024498                    0.01      0.09      0.01      0.12         0.07
  H0041011                    0.08      0.08      0.11      0.01         0.01
  H0045107                    0.08      0.08      0.10      0.01         0.01
  H0045108                    0.10      0.10      0.12      0.07         0.07
  

  Analysis begun on:  Fri Mar 22 15:56:42 2024
  Analysis ended on:  Fri Mar 22 15:56:51 2024
  Total elapsed time: 00:00:09