
  EPA STORM WATER MANAGEMENT MODEL - VERSION 5.2 (Build 5.2.4)
  PYSWMM TOOLKIT API - VERSION v1.0 (2023-11-27)
  ------------------------------------------------------------

  Gievenbeck_2022-05-26 23 40 00_hN4 62 
  
  ****************
  Analysis Options
  ****************
  Flow Units ............... CMS
  Process Models:
    Rainfall/Runoff ........ YES
    RDII ................... NO
    Snowmelt ............... NO
    Groundwater ............ NO
    Flow Routing ........... YES
    Ponding Allowed ........ NO
    Water Quality .......... NO
  Infiltration Method ...... HORTON
  Flow Routing Method ...... DYNWAVE
  Surcharge Method ......... SLOT
  Starting Date ............ 01/01/2024 00:00:00
  Ending Date .............. 01/04/2024 04:00:00
  Antecedent Dry Days ...... 14.0
  Report Time Step ......... 00:01:00
  Wet Time Step ............ 00:01:00
  Dry Time Step ............ 00:01:00
  Routing Time Step ........ 1.00 sec
  Variable Time Step ....... YES
  Maximum Trials ........... 8
  Number of Threads ........ 1
  Head Tolerance ........... 0.001500 m
  
  
  **************************        Volume         Depth
  Runoff Quantity Continuity     hectare-m            mm
  **************************     ---------       -------
  Total Precipitation ......         0.047         4.620
  Evaporation Loss .........         0.010         0.991
  Infiltration Loss ........         0.025         2.496
  Surface Runoff ...........         0.011         1.136
  Final Storage ............         0.000         0.000
  Continuity Error (%) .....        -0.053
  
  
  **************************        Volume        Volume
  Flow Routing Continuity        hectare-m      10^6 ltr
  **************************     ---------     ---------
  Dry Weather Inflow .......         0.000         0.000
  Wet Weather Inflow .......         0.011         0.115
  Groundwater Inflow .......         0.000         0.000
  RDII Inflow ..............         0.000         0.000
  External Inflow ..........         0.000         0.000
  External Outflow .........         0.011         0.115
  Flooding Loss ............         0.000         0.000
  Evaporation Loss .........         0.000         0.000
  Exfiltration Loss ........         0.000         0.000
  Initial Stored Volume ....         0.000         0.000
  Final Stored Volume ......         0.000         0.000
  Continuity Error (%) .....         0.000
  
  
  ***************************
  Time-Step Critical Elements
  ***************************
  None
  
  
  ********************************
  Highest Flow Instability Indexes
  ********************************
  All links are stable.
  
  
  *********************************
  Most Frequent Nonconverging Nodes
  *********************************
  Convergence obtained at all time steps.
  
  
  *************************
  Routing Time Step Summary
  *************************
  Minimum Time Step           :     0.50 sec
  Average Time Step           :     1.00 sec
  Maximum Time Step           :     1.00 sec
  % of Time in Steady State   :     0.00
  Average Iterations per Step :     2.00
  % of Steps Not Converging   :     0.00
  Time Step Frequencies       :
      1.000 -  0.871 sec      :   100.00 %
      0.871 -  0.758 sec      :     0.00 %
      0.758 -  0.660 sec      :     0.00 %
      0.660 -  0.574 sec      :     0.00 %
      0.574 -  0.500 sec      :     0.00 %
  
  
  ***************************
  Subcatchment Runoff Summary
  ***************************
  
  ------------------------------------------------------------------------------------------------------------------------------
                            Total      Total      Total      Total     Imperv       Perv      Total       Total     Peak  Runoff
                           Precip      Runon       Evap      Infil     Runoff     Runoff     Runoff      Runoff   Runoff   Coeff
  Subcatchment                 mm         mm         mm         mm         mm         mm         mm    10^6 ltr      CMS
  ------------------------------------------------------------------------------------------------------------------------------
  EZG_368                    4.62       0.00       0.98       2.51       1.33       0.00       1.13        0.00     0.00   0.244
  EZG_392                    4.62       0.00       0.98       2.51       1.33       0.00       1.13        0.00     0.00   0.245
  EZG_352                    4.62       0.00       0.99       2.51       1.32       0.00       1.12        0.01     0.01   0.243
  EZG_372                    4.62       0.00       0.97       2.51       1.34       0.00       1.14        0.00     0.00   0.247
  EZG_416                    4.62       0.00       0.98       2.51       1.33       0.00       1.13        0.00     0.00   0.245
  EZG_388                    4.62       0.00       0.99       2.51       1.33       0.00       1.13        0.01     0.00   0.244
  EZG_394                    4.62       0.00       0.98       2.51       1.33       0.00       1.13        0.00     0.00   0.245
  EZG_400                    4.62       0.00       0.98       2.51       1.33       0.00       1.13        0.00     0.00   0.245
  EZG_390                    4.62       0.00       0.98       2.51       1.33       0.00       1.13        0.00     0.00   0.245
  EZG_350                    4.62       0.00       0.99       2.51       1.33       0.00       1.13        0.01     0.00   0.244
  EZG_370                    4.62       0.00       0.98       2.51       1.33       0.00       1.13        0.00     0.00   0.245
  EZG_398                    4.62       0.00       0.97       2.51       1.35       0.00       1.14        0.00     0.00   0.248
  EZG_382                    4.62       0.00       0.97       2.51       1.35       0.00       1.14        0.00     0.00   0.248
  EZG_374                    4.62       0.00       1.19       2.09       1.59       0.00       1.35        0.01     0.00   0.292
  EZG_412                    4.62       0.00       0.96       2.51       1.35       0.00       1.15        0.00     0.00   0.249
  EZG_344                    4.62       0.00       0.98       2.51       1.33       0.00       1.13        0.00     0.00   0.246
  EZG_376                    4.62       0.00       0.98       2.51       1.34       0.00       1.14        0.00     0.00   0.246
  EZG_356                    4.62       0.00       0.99       2.51       1.32       0.00       1.12        0.01     0.01   0.243
  EZG_386                    4.62       0.00       1.00       2.51       1.32       0.00       1.12        0.01     0.01   0.242
  EZG_380                    4.62       0.00       0.98       2.51       1.33       0.00       1.13        0.00     0.00   0.244
  EZG_378                    4.62       0.00       0.98       2.51       1.33       0.00       1.13        0.00     0.00   0.245
  EZG_414                    4.62       0.00       0.97       2.51       1.35       0.00       1.15        0.00     0.00   0.248
  EZG_402                    4.62       0.00       0.98       2.51       1.33       0.00       1.13        0.00     0.00   0.245
  EZG_358                    4.62       0.00       0.99       2.51       1.32       0.00       1.12        0.01     0.01   0.243
  EZG_364                    4.62       0.00       0.99       2.51       1.32       0.00       1.12        0.01     0.01   0.243
  EZG_410                    4.62       0.00       0.98       2.51       1.34       0.00       1.14        0.00     0.00   0.246
  EZG_366                    4.62       0.00       0.98       2.51       1.34       0.00       1.13        0.00     0.00   0.246
  EZG_18259                  4.62       0.00       0.98       2.51       1.34       0.00       1.14        0.00     0.00   0.246
  EZG_18258                  4.62       0.00       0.96       2.51       1.35       0.00       1.15        0.00     0.00   0.248
  EZG_346                    4.62       0.00       0.96       2.55       1.30       0.00       1.11        0.00     0.00   0.240
  EZG_348                    4.62       0.00       0.96       2.55       1.31       0.00       1.11        0.00     0.00   0.241
  
  
  ******************
  Node Depth Summary
  ******************
  
  ---------------------------------------------------------------------------------
                                 Average  Maximum  Maximum  Time of Max    Reported
                                   Depth    Depth      HGL   Occurrence   Max Depth
  Node                 Type       Meters   Meters   Meters  days hr:min      Meters
  ---------------------------------------------------------------------------------
  R0019466             JUNCTION     0.00     0.08    69.53     0  04:12        0.08
  R0019468             JUNCTION     0.00     0.08    69.39     0  04:14        0.08
  R0019831             JUNCTION     0.00     0.04    69.21     0  04:11        0.04
  R0019825             JUNCTION     0.00     0.07    68.91     0  04:12        0.07
  R0019843             JUNCTION     0.00     0.12    67.75     0  04:19        0.12
  R0019368             JUNCTION     0.00     0.17    66.96     0  04:19        0.17
  R0019369             JUNCTION     0.00     0.13    66.72     0  04:19        0.13
  R0019370             JUNCTION     0.00     0.11    66.01     0  04:20        0.11
  R0019345             JUNCTION     0.00     0.08    69.98     0  04:14        0.08
  R0019346             JUNCTION     0.00     0.07    69.87     0  04:14        0.07
  R0043600             JUNCTION     0.00     0.08    69.75     0  04:16        0.08
  R0019203             JUNCTION     0.00     0.09    69.63     0  04:16        0.09
  R0043594             JUNCTION     0.00     0.07    69.80     0  04:13        0.07
  R0021458             JUNCTION     0.00     0.09    69.74     0  04:15        0.09
  R0019202             JUNCTION     0.00     0.08    69.66     0  04:16        0.08
  R0019373             JUNCTION     0.00     0.05    69.72     0  04:11        0.05
  R0019254             JUNCTION     0.00     0.07    70.11     0  04:12        0.07
  R0019716             JUNCTION     0.00     0.11    69.12     0  04:18        0.11
  R0019946             JUNCTION     0.00     0.18    68.80     0  04:18        0.18
  R0013935             JUNCTION     0.00     0.04    68.87     0  04:10        0.04
  R0019939             JUNCTION     0.00     0.06    68.63     0  04:12        0.06
  R0019944             JUNCTION     0.00     0.10    68.38     0  04:19        0.10
  R0043703             JUNCTION     0.00     0.12    68.72     0  04:19        0.12
  R0019945             JUNCTION     0.00     0.12    68.52     0  04:19        0.12
  R0039621             JUNCTION     0.00     0.00    69.57     0  00:00        0.00
  R0019838             JUNCTION     0.00     0.07    69.53     0  04:15        0.07
  R0039606             JUNCTION     0.00     0.08    69.67     0  04:16        0.08
  R0019204             JUNCTION     0.00     0.00    69.91     0  00:00        0.00
  R0019205             JUNCTION     0.00     0.00    69.62     0  00:00        0.00
  R0019849             JUNCTION     0.00     0.07    68.59     0  04:13        0.07
  R0019371             JUNCTION     0.00     0.00    70.41     0  00:00        0.00
  R0019718             JUNCTION     0.00     0.14    69.56     0  04:18        0.14
  R0021442             JUNCTION     0.00     0.09    70.14     0  04:13        0.09
  R0019247             JUNCTION     0.00     0.09    69.97     0  04:14        0.09
  R0019719             JUNCTION     0.00     0.08    69.76     0  04:15        0.08
  R0019767             JUNCTION     0.00     0.12    64.85     0  04:20        0.12
  R0019768             JUNCTION     0.00     0.10    63.87     0  04:20        0.10
  R0021453             JUNCTION     0.00     0.03    69.98     0  04:10        0.03
  R0019839             JUNCTION     0.00     0.06    69.45     0  04:15        0.06
  R0019717             JUNCTION     0.00     0.11    69.45     0  04:17        0.11
  R0019252             JUNCTION     0.00     0.05    70.24     0  04:11        0.05
  R0019721             JUNCTION     0.00     0.06    69.93     0  04:12        0.06
  R0019942             JUNCTION     0.00     0.05    68.70     0  04:13        0.05
  R0019206             JUNCTION     0.00     0.00    69.07     0  00:00        0.00
  R0019840             JUNCTION     0.00     0.06    69.03     0  04:15        0.06
  R0043702             JUNCTION     0.00     0.09    68.79     0  04:15        0.09
  R0019723             JUNCTION     0.00     0.05    70.13     0  04:11        0.05
  R0019724             JUNCTION     0.00     0.03    70.19     0  04:10        0.03
  R0021433             JUNCTION     0.00     0.05    70.44     0  04:11        0.05
  R0021435             JUNCTION     0.00     0.07    70.25     0  04:12        0.07
  R0019769             OUTFALL      0.00     0.10    63.48     0  04:20        0.10
  
  
  *******************
  Node Inflow Summary
  *******************
  
  -------------------------------------------------------------------------------------------------
                                  Maximum  Maximum                  Lateral       Total        Flow
                                  Lateral    Total  Time of Max      Inflow      Inflow     Balance
                                   Inflow   Inflow   Occurrence      Volume      Volume       Error
  Node                 Type           CMS      CMS  days hr:min    10^6 ltr    10^6 ltr     Percent
  -------------------------------------------------------------------------------------------------
  R0019466             JUNCTION     0.004    0.008     0  04:11     0.00466     0.00872      -0.099
  R0019468             JUNCTION     0.003    0.011     0  04:12     0.00272      0.0114       0.109
  R0019831             JUNCTION     0.004    0.004     0  04:10     0.00366     0.00366      -0.276
  R0019825             JUNCTION     0.004    0.007     0  04:10     0.00368     0.00735      -0.027
  R0019843             JUNCTION     0.000    0.090     0  04:18           0       0.115      -0.042
  R0019368             JUNCTION     0.000    0.090     0  04:19           0       0.115       0.000
  R0019369             JUNCTION     0.000    0.090     0  04:19           0       0.115       0.010
  R0019370             JUNCTION     0.000    0.090     0  04:19           0       0.115       0.005
  R0019345             JUNCTION     0.000    0.007     0  04:12           0      0.0072       0.377
  R0019346             JUNCTION     0.001    0.011     0  04:13    0.000459       0.012       0.110
  R0043600             JUNCTION     0.000    0.012     0  04:15           0      0.0139       0.379
  R0019203             JUNCTION     0.001    0.027     0  04:16     0.00101      0.0311      -0.079
  R0043594             JUNCTION     0.006    0.009     0  04:10     0.00664     0.00948      -0.506
  R0021458             JUNCTION     0.005    0.013     0  04:13     0.00517      0.0147      -0.064
  R0019202             JUNCTION     0.002    0.014     0  04:15     0.00154      0.0162      -0.052
  R0019373             JUNCTION     0.004    0.004     0  04:10     0.00405     0.00405      -0.132
  R0019254             JUNCTION     0.003    0.007     0  04:11      0.0033     0.00719      -0.229
  R0019716             JUNCTION     0.005    0.052     0  04:17     0.00514       0.064      -0.116
  R0019946             JUNCTION     0.000    0.052     0  04:18           0      0.0641       0.152
  R0013935             JUNCTION     0.003    0.003     0  04:10     0.00314     0.00314      -0.268
  R0019939             JUNCTION     0.002    0.005     0  04:10     0.00113     0.00428      -0.095
  R0019944             JUNCTION     0.003    0.065     0  04:19     0.00292      0.0821      -0.003
  R0043703             JUNCTION     0.004    0.054     0  04:18     0.00358      0.0676      -0.026
  R0019945             JUNCTION     0.000    0.063     0  04:18           0      0.0792       0.015
  R0039621             JUNCTION     0.000    0.000     0  00:00           0           0       0.000 ltr
  R0019838             JUNCTION     0.006    0.006     0  04:15     0.00719     0.00719      -0.006
  R0039606             JUNCTION     0.000    0.013     0  04:15           0      0.0147       0.368
  R0019204             JUNCTION     0.000    0.000     0  00:00           0           0       0.000 ltr
  R0019205             JUNCTION     0.000    0.000     0  00:00           0           0       0.000 ltr
  R0019849             JUNCTION     0.000    0.011     0  04:12           0      0.0116       0.036
  R0019371             JUNCTION     0.000    0.000     0  00:00           0           0       0.000 ltr
  R0019718             JUNCTION     0.004    0.030     0  04:16      0.0044      0.0355       0.073
  R0021442             JUNCTION     0.004    0.010     0  04:12     0.00512      0.0116      -0.084
  R0019247             JUNCTION     0.003    0.012     0  04:12     0.00227      0.0139      -0.283
  R0019719             JUNCTION     0.003    0.013     0  04:14     0.00239      0.0144      -0.017
  R0019767             JUNCTION     0.000    0.090     0  04:20           0       0.115       0.005
  R0019768             JUNCTION     0.000    0.090     0  04:20           0       0.115       0.022
  R0021453             JUNCTION     0.003    0.003     0  04:10     0.00287     0.00287       0.790
  R0019839             JUNCTION     0.006    0.012     0  04:15      0.0071      0.0143      -0.098
  R0019717             JUNCTION     0.007    0.048     0  04:17     0.00893      0.0589      -0.001
  R0019252             JUNCTION     0.004    0.004     0  04:10     0.00387     0.00387      -0.278
  R0019721             JUNCTION     0.001    0.005     0  04:10    0.000996     0.00441       0.029
  R0019942             JUNCTION     0.000    0.007     0  04:12           0     0.00735       0.150
  R0019206             JUNCTION     0.000    0.000     0  00:00           0           0       0.000 ltr
  R0019840             JUNCTION     0.000    0.022     0  04:15           0      0.0257       0.056
  R0043702             JUNCTION     0.006    0.028     0  04:15     0.00711      0.0328      -0.009
  R0019723             JUNCTION     0.003    0.004     0  04:10      0.0027      0.0034      -0.346
  R0019724             JUNCTION     0.001    0.001     0  04:10    0.000703    0.000703      -0.305
  R0021433             JUNCTION     0.004    0.004     0  04:10     0.00403     0.00403      -0.286
  R0021435             JUNCTION     0.003    0.006     0  04:10     0.00248     0.00652       0.123
  R0019769             OUTFALL      0.000    0.090     0  04:20           0       0.115       0.000
  
  
  **********************
  Node Surcharge Summary
  **********************
  
  No nodes were surcharged.
  
  
  *********************
  Node Flooding Summary
  *********************
  
  No nodes were flooded.
  
  
  ***********************
  Outfall Loading Summary
  ***********************
  
  -----------------------------------------------------------
                         Flow       Avg       Max       Total
                         Freq      Flow      Flow      Volume
  Outfall Node           Pcnt       CMS       CMS    10^6 ltr
  -----------------------------------------------------------
  R0019769               3.79     0.011     0.090       0.115
  -----------------------------------------------------------
  System                 3.79     0.011     0.090       0.115
  
  
  ********************
  Link Flow Summary
  ********************
  
  -----------------------------------------------------------------------------
                                 Maximum  Time of Max   Maximum    Max/    Max/
                                  |Flow|   Occurrence   |Veloc|    Full    Full
  Link                 Type          CMS  days hr:min     m/sec    Flow   Depth
  -----------------------------------------------------------------------------
  H0014431             CONDUIT     0.008     0  04:12      0.55    0.15    0.26
  H0014433             CONDUIT     0.004     0  04:11      0.40    0.05    0.19
  H0014352             CONDUIT     0.090     0  04:19      1.38    0.04    0.16
  H0014373             CONDUIT     0.090     0  04:19      1.81    0.04    0.13
  H0017981             CONDUIT     0.006     0  04:14      0.50    0.18    0.24
  H0017755             CONDUIT     0.012     0  04:16      0.68    0.10    0.20
  H0017791             CONDUIT     0.008     0  04:13      0.33    0.01    0.09
  H0017357             CONDUIT     0.000     0  00:00      0.00    0.00    0.08
  H0018216             CONDUIT     0.007     0  04:12      0.51    0.12    0.25
  H0016792             CONDUIT     0.052     0  04:18      0.78    0.03    0.16
  H0019507             CONDUIT     0.003     0  04:10      0.38    0.04    0.18
  H0019998             CONDUIT     0.065     0  04:19      1.48    0.03    0.12
  H0019576             CONDUIT     0.054     0  04:19      1.08    0.04    0.13
  H0020087             CONDUIT     0.000     0  00:00      0.00    0.00    0.07
  H0020211             CONDUIT     0.052     0  04:18      0.74    0.13    0.17
  H0018982             CONDUIT     0.013     0  04:15      0.41    0.02    0.09
  H0018753             CONDUIT     0.004     0  04:11      0.35    0.05    0.21
  H0018845             CONDUIT     0.000     0  00:00      0.00    0.00    0.00
  H0018863             CONDUIT     0.004     0  04:12      0.38    0.10    0.23
  H0019156             CONDUIT     0.000     0  00:00      0.00    0.00    0.00
  H0018929             CONDUIT     0.027     0  04:16      0.57    0.02    0.13
  H0018440             CONDUIT     0.010     0  04:13      0.60    0.18    0.30
  H0018456             CONDUIT     0.011     0  04:14      0.71    0.07    0.19
  H0018968             CONDUIT     0.090     0  04:20      2.06    0.03    0.12
  H0022036             CONDUIT     0.003     0  04:10      0.45    0.00    0.04
  H0021806             CONDUIT     0.012     0  04:15      0.62    0.11    0.22
  H0022111             CONDUIT     0.006     0  04:15      0.36    0.04    0.14
  H0021440             CONDUIT     0.048     0  04:17      1.12    0.03    0.12
  H0021704             CONDUIT     0.029     0  04:18      0.59    0.06    0.13
  H0020521             CONDUIT     0.004     0  04:11      0.35    0.07    0.21
  H0020755             CONDUIT     0.004     0  04:12      0.36    0.05    0.16
  H0020530             CONDUIT     0.090     0  04:19      1.31    0.08    0.16
  H0020618             CONDUIT     0.063     0  04:19      1.41    0.04    0.12
  H0021163             CONDUIT     0.007     0  04:12      0.66    0.11    0.20
  H0020497             CONDUIT     0.000     0  00:00      0.00    0.00    0.20
  H0024325             CONDUIT     0.012     0  04:15      0.84    0.03    0.12
  H0023585             CONDUIT     0.028     0  04:15      1.24    0.06    0.17
  H0024098             CONDUIT     0.011     0  04:13      0.82    0.13    0.31
  H0024235             CONDUIT     0.013     0  04:15      0.69    0.05    0.15
  H0024282             CONDUIT     0.000     0  00:00      0.00    0.00    0.00
  H0024308             CONDUIT     0.090     0  04:20      2.30    0.03    0.11
  H0024498             CONDUIT     0.010     0  04:14      0.69    0.16    0.26
  H0026990             CONDUIT     0.004     0  04:11      0.41    0.03    0.13
  H0041650             CONDUIT     0.014     0  04:16      0.44    0.02    0.10
  H0041011             CONDUIT     0.007     0  04:13      0.64    0.07    0.21
  H0045103             CONDUIT     0.012     0  04:16      0.45    0.02    0.09
  H0045104             CONDUIT     0.090     0  04:20      1.93    0.03    0.13
  H0045105             CONDUIT     0.001     0  04:10      0.21    0.02    0.12
  H0045106             CONDUIT     0.022     0  04:15      1.25    0.03    0.14
  H0045107             CONDUIT     0.004     0  04:11      0.42    0.06    0.20
  H0045108             CONDUIT     0.006     0  04:12      0.42    0.11    0.26
  
  
  ***************************
  Flow Classification Summary
  ***************************
  
  -------------------------------------------------------------------------------------
                      Adjusted    ---------- Fraction of Time in Flow Class ---------- 
                       /Actual         Up    Down  Sub   Sup   Up    Down  Norm  Inlet 
  Conduit               Length    Dry  Dry   Dry   Crit  Crit  Crit  Crit  Ltd   Ctrl  
  -------------------------------------------------------------------------------------
  H0014431                1.00   0.05  0.00  0.00  0.95  0.00  0.00  0.00  0.94  0.00
  H0014433                1.00   0.05  0.00  0.00  0.95  0.00  0.00  0.00  0.95  0.00
  H0014352                1.00   0.05  0.00  0.00  0.93  0.02  0.00  0.00  0.94  0.00
  H0014373                1.00   0.05  0.00  0.00  0.91  0.03  0.00  0.00  0.90  0.00
  H0017981                1.00   0.05  0.00  0.00  0.00  0.00  0.00  0.95  0.00  0.00
  H0017755                1.00   0.05  0.00  0.00  0.00  0.00  0.00  0.95  0.00  0.00
  H0017791                1.00   0.05  0.00  0.00  0.95  0.00  0.00  0.00  0.95  0.00
  H0017357                1.00   0.05  0.95  0.00  0.00  0.00  0.00  0.00  0.00  0.00
  H0018216                1.00   0.05  0.91  0.00  0.04  0.00  0.00  0.00  0.94  0.00
  H0016792                1.00   0.05  0.90  0.00  0.04  0.00  0.00  0.00  0.95  0.00
  H0019507                1.00   0.05  0.00  0.00  0.95  0.00  0.00  0.00  0.95  0.00
  H0019998                1.00   0.05  0.00  0.00  0.92  0.03  0.00  0.00  0.05  0.00
  H0019576                1.00   0.05  0.00  0.00  0.94  0.01  0.00  0.00  0.05  0.00
  H0020087                1.00   0.05  0.95  0.00  0.00  0.00  0.00  0.00  0.00  0.00
  H0020211                1.00   0.05  0.00  0.00  0.95  0.00  0.00  0.00  0.90  0.00
  H0018982                1.00   0.05  0.00  0.00  0.95  0.00  0.00  0.00  0.92  0.00
  H0018753                1.00   0.05  0.00  0.00  0.95  0.00  0.00  0.00  0.95  0.00
  H0018845                1.00   1.00  0.00  0.00  0.00  0.00  0.00  0.00  0.00  0.00
  H0018863                1.00   0.05  0.00  0.00  0.95  0.00  0.00  0.00  0.94  0.00
  H0019156                1.00   1.00  0.00  0.00  0.00  0.00  0.00  0.00  0.00  0.00
  H0018929                1.00   0.05  0.91  0.00  0.04  0.00  0.00  0.00  0.95  0.00
  H0018440                1.00   0.05  0.00  0.00  0.95  0.00  0.00  0.00  0.94  0.00
  H0018456                1.00   0.05  0.00  0.00  0.95  0.00  0.00  0.00  0.95  0.00
  H0018968                1.00   0.05  0.00  0.00  0.91  0.04  0.00  0.00  0.92  0.00
  H0022036                1.00   0.05  0.00  0.00  0.00  0.00  0.00  0.94  0.00  0.00
  H0021806                1.00   0.05  0.91  0.00  0.04  0.00  0.00  0.00  0.94  0.00
  H0022111                1.00   0.05  0.00  0.00  0.95  0.00  0.00  0.00  0.00  0.00
  H0021440                1.00   0.05  0.00  0.00  0.93  0.02  0.00  0.00  0.01  0.00
  H0021704                1.00   0.05  0.00  0.00  0.00  0.00  0.00  0.95  0.00  0.00
  H0020521                1.00   0.05  0.00  0.00  0.95  0.00  0.00  0.00  0.95  0.00
  H0020755                1.00   0.05  0.91  0.00  0.03  0.00  0.00  0.00  0.94  0.00
  H0020530                1.00   0.05  0.00  0.00  0.93  0.01  0.00  0.00  0.00  0.00
  H0020618                1.00   0.05  0.00  0.00  0.92  0.02  0.00  0.00  0.90  0.00
  H0021163                1.00   0.05  0.00  0.00  0.94  0.00  0.00  0.00  0.92  0.00
  H0020497                1.20   0.05  0.95  0.00  0.00  0.00  0.00  0.00  0.00  0.00
  H0024325                1.00   0.05  0.00  0.00  0.93  0.02  0.00  0.00  0.92  0.00
  H0023585                1.00   0.05  0.00  0.00  0.00  0.00  0.00  0.95  0.00  0.00
  H0024098                1.00   0.05  0.91  0.00  0.04  0.00  0.00  0.00  0.95  0.00
  H0024235                1.00   0.05  0.00  0.00  0.00  0.00  0.00  0.95  0.00  0.00
  H0024282                1.00   1.00  0.00  0.00  0.00  0.00  0.00  0.00  0.00  0.00
  H0024308                1.00   0.05  0.00  0.00  0.90  0.05  0.00  0.00  0.01  0.00
  H0024498                1.00   0.05  0.00  0.00  0.00  0.00  0.00  0.95  0.00  0.00
  H0026990                1.00   0.05  0.00  0.00  0.95  0.00  0.00  0.00  0.95  0.00
  H0041650                1.00   0.96  0.01  0.00  0.03  0.00  0.00  0.00  0.94  0.00
  H0041011                1.00   0.05  0.00  0.00  0.95  0.00  0.00  0.00  0.95  0.00
  H0045103                1.00   0.05  0.00  0.00  0.95  0.00  0.00  0.00  0.93  0.00
  H0045104                1.00   0.05  0.00  0.00  0.91  0.04  0.00  0.00  0.05  0.00
  H0045105                1.00   0.05  0.00  0.00  0.95  0.00  0.00  0.00  0.95  0.00
  H0045106                1.00   0.05  0.91  0.00  0.02  0.02  0.00  0.00  0.95  0.00
  H0045107                1.00   0.05  0.00  0.00  0.95  0.00  0.00  0.00  0.95  0.00
  H0045108                1.00   0.05  0.00  0.00  0.95  0.00  0.00  0.00  0.95  0.00
  
  
  *************************
  Conduit Surcharge Summary
  *************************
  
  No conduits were surcharged.
  

  Analysis begun on:  Fri Mar 22 15:55:05 2024
  Analysis ended on:  Fri Mar 22 15:55:15 2024
  Total elapsed time: 00:00:10