
  EPA STORM WATER MANAGEMENT MODEL - VERSION 5.2 (Build 5.2.4)
  PYSWMM TOOLKIT API - VERSION v1.0 (2023-11-27)
  ------------------------------------------------------------

  Gievenbeck_e2_T2D540 
  
  ****************
  Analysis Options
  ****************
  Flow Units ............... CMS
  Process Models:
    Rainfall/Runoff ........ YES
    RDII ................... NO
    Snowmelt ............... NO
    Groundwater ............ NO
    Flow Routing ........... YES
    Ponding Allowed ........ NO
    Water Quality .......... NO
  Infiltration Method ...... HORTON
  Flow Routing Method ...... DYNWAVE
  Surcharge Method ......... SLOT
  Starting Date ............ 01/01/2024 00:00:00
  Ending Date .............. 01/04/2024 04:00:00
  Antecedent Dry Days ...... 14.0
  Report Time Step ......... 00:01:00
  Wet Time Step ............ 00:01:00
  Dry Time Step ............ 00:01:00
  Routing Time Step ........ 1.00 sec
  Variable Time Step ....... YES
  Maximum Trials ........... 8
  Number of Threads ........ 1
  Head Tolerance ........... 0.001500 m
  
  
  **************************        Volume         Depth
  Runoff Quantity Continuity     hectare-m            mm
  **************************     ---------       -------
  Total Precipitation ......         0.329        32.550
  Evaporation Loss .........         0.010         0.948
  Infiltration Loss ........         0.180        17.802
  Surface Runoff ...........         0.140        13.825
  Final Storage ............         0.000         0.000
  Continuity Error (%) .....        -0.077
  
  
  **************************        Volume        Volume
  Flow Routing Continuity        hectare-m      10^6 ltr
  **************************     ---------     ---------
  Dry Weather Inflow .......         0.000         0.000
  Wet Weather Inflow .......         0.140         1.399
  Groundwater Inflow .......         0.000         0.000
  RDII Inflow ..............         0.000         0.000
  External Inflow ..........         0.000         0.000
  External Outflow .........         0.140         1.400
  Flooding Loss ............         0.000         0.000
  Evaporation Loss .........         0.000         0.000
  Exfiltration Loss ........         0.000         0.000
  Initial Stored Volume ....         0.000         0.000
  Final Stored Volume ......         0.000         0.000
  Continuity Error (%) .....        -0.059
  
  
  ***************************
  Time-Step Critical Elements
  ***************************
  None
  
  
  ********************************
  Highest Flow Instability Indexes
  ********************************
  All links are stable.
  
  
  *********************************
  Most Frequent Nonconverging Nodes
  *********************************
  Convergence obtained at all time steps.
  
  
  *************************
  Routing Time Step Summary
  *************************
  Minimum Time Step           :     0.68 sec
  Average Time Step           :     1.00 sec
  Maximum Time Step           :     1.00 sec
  % of Time in Steady State   :     0.00
  Average Iterations per Step :     2.00
  % of Steps Not Converging   :     0.00
  Time Step Frequencies       :
      1.000 -  0.871 sec      :   100.00 %
      0.871 -  0.758 sec      :     0.00 %
      0.758 -  0.660 sec      :     0.00 %
      0.660 -  0.574 sec      :     0.00 %
      0.574 -  0.500 sec      :     0.00 %
  
  
  ***************************
  Subcatchment Runoff Summary
  ***************************
  
  ------------------------------------------------------------------------------------------------------------------------------
                            Total      Total      Total      Total     Imperv       Perv      Total       Total     Peak  Runoff
                           Precip      Runon       Evap      Infil     Runoff     Runoff     Runoff      Runoff   Runoff   Coeff
  Subcatchment                 mm         mm         mm         mm         mm         mm         mm    10^6 ltr      CMS
  ------------------------------------------------------------------------------------------------------------------------------
  EZG_368                   32.55       0.00       0.94      17.92      15.35       0.67      13.71        0.06     0.06   0.421
  EZG_392                   32.55       0.00       0.94      17.86      15.35       0.72      13.78        0.04     0.04   0.423
  EZG_352                   32.55       0.00       0.95      18.00      15.34       0.58      13.63        0.08     0.08   0.419
  EZG_372                   32.55       0.00       0.93      17.64      15.37       0.95      14.01        0.02     0.02   0.430
  EZG_416                   32.55       0.00       0.94      17.84      15.36       0.75      13.80        0.04     0.04   0.424
  EZG_388                   32.55       0.00       0.94      17.94      15.35       0.64      13.69        0.06     0.06   0.421
  EZG_394                   32.55       0.00       0.94      17.82      15.36       0.76      13.82        0.04     0.04   0.424
  EZG_400                   32.55       0.00       0.94      17.81      15.36       0.78      13.84        0.04     0.04   0.425
  EZG_390                   32.55       0.00       0.94      17.86      15.36       0.73      13.78        0.04     0.04   0.423
  EZG_350                   32.55       0.00       0.94      17.94      15.35       0.64      13.69        0.06     0.06   0.420
  EZG_370                   32.55       0.00       0.94      17.89      15.35       0.70      13.75        0.05     0.05   0.422
  EZG_398                   32.55       0.00       0.93      17.56      15.37       1.03      14.10        0.01     0.02   0.433
  EZG_382                   32.55       0.00       0.93      17.53      15.38       1.06      14.13        0.01     0.01   0.434
  EZG_374                   32.55       0.00       1.14      14.89      18.41       0.90      16.55        0.06     0.06   0.509
  EZG_412                   32.55       0.00       0.92      17.32      15.39       1.28      14.36        0.01     0.01   0.441
  EZG_344                   32.55       0.00       0.94      17.80      15.36       0.78      13.84        0.04     0.04   0.425
  EZG_376                   32.55       0.00       0.93      17.74      15.36       0.85      13.90        0.03     0.03   0.427
  EZG_356                   32.55       0.00       0.95      18.01      15.34       0.57      13.61        0.09     0.08   0.418
  EZG_386                   32.55       0.00       0.95      18.06      15.34       0.52      13.56        0.11     0.10   0.416
  EZG_380                   32.55       0.00       0.94      17.90      15.35       0.68      13.73        0.05     0.05   0.422
  EZG_378                   32.55       0.00       0.94      17.87      15.35       0.71      13.76        0.05     0.05   0.423
  EZG_414                   32.55       0.00       0.93      17.53      15.38       1.07      14.14        0.01     0.01   0.434
  EZG_402                   32.55       0.00       0.94      17.86      15.35       0.72      13.77        0.04     0.04   0.423
  EZG_358                   32.55       0.00       0.95      18.01      15.34       0.57      13.61        0.09     0.08   0.418
  EZG_364                   32.55       0.00       0.95      18.01      15.34       0.57      13.61        0.09     0.08   0.418
  EZG_410                   32.55       0.00       0.93      17.76      15.36       0.83      13.89        0.03     0.03   0.427
  EZG_366                   32.55       0.00       0.94      17.79      15.36       0.80      13.85        0.03     0.03   0.426
  EZG_18259                 32.55       0.00       0.94      17.79      15.36       0.80      13.86        0.03     0.03   0.426
  EZG_18258                 32.55       0.00       0.92      17.43      15.38       1.16      14.24        0.01     0.01   0.437
  EZG_346                   32.55       0.00       0.92      18.19      15.05       0.68      13.47        0.05     0.05   0.414
  EZG_348                   32.55       0.00       0.92      18.07      15.05       0.80      13.59        0.03     0.03   0.418
  
  
  ******************
  Node Depth Summary
  ******************
  
  ---------------------------------------------------------------------------------
                                 Average  Maximum  Maximum  Time of Max    Reported
                                   Depth    Depth      HGL   Occurrence   Max Depth
  Node                 Type       Meters   Meters   Meters  days hr:min      Meters
  ---------------------------------------------------------------------------------
  R0019466             JUNCTION     0.01     0.57    70.02     0  05:05        0.57
  R0019468             JUNCTION     0.01     0.51    69.82     0  05:05        0.50
  R0019831             JUNCTION     0.00     0.24    69.41     0  05:05        0.19
  R0019825             JUNCTION     0.00     0.53    69.37     0  05:05        0.53
  R0019843             JUNCTION     0.01     0.41    68.04     0  05:06        0.41
  R0019368             JUNCTION     0.01     0.63    67.42     0  05:06        0.63
  R0019369             JUNCTION     0.01     0.45    67.04     0  05:06        0.44
  R0019370             JUNCTION     0.01     0.38    66.28     0  05:06        0.38
  R0019345             JUNCTION     0.01     0.32    70.22     0  05:05        0.29
  R0019346             JUNCTION     0.00     0.28    70.08     0  05:05        0.27
  R0043600             JUNCTION     0.01     0.32    69.99     0  05:05        0.32
  R0019203             JUNCTION     0.01     0.37    69.91     0  05:05        0.37
  R0043594             JUNCTION     0.00     0.25    69.98     0  05:05        0.25
  R0021458             JUNCTION     0.01     0.30    69.95     0  05:05        0.30
  R0019202             JUNCTION     0.01     0.33    69.91     0  05:05        0.33
  R0019373             JUNCTION     0.00     0.36    70.03     0  05:05        0.35
  R0019254             JUNCTION     0.00     0.47    70.51     0  05:05        0.41
  R0019716             JUNCTION     0.01     0.39    69.40     0  05:06        0.39
  R0019946             JUNCTION     0.01     0.55    69.17     0  05:06        0.55
  R0013935             JUNCTION     0.00     0.28    69.11     0  05:05        0.24
  R0019939             JUNCTION     0.00     0.49    69.06     0  05:05        0.48
  R0019944             JUNCTION     0.01     0.34    68.62     0  05:06        0.34
  R0043703             JUNCTION     0.01     0.42    69.02     0  05:06        0.42
  R0019945             JUNCTION     0.01     0.43    68.83     0  05:06        0.43
  R0039621             JUNCTION     0.00     0.15    69.72     0  05:05        0.14
  R0019838             JUNCTION     0.01     0.26    69.72     0  05:05        0.25
  R0039606             JUNCTION     0.01     0.33    69.92     0  05:05        0.33
  R0019204             JUNCTION     0.00     0.00    69.91     0  00:00        0.00
  R0019205             JUNCTION     0.00     0.00    69.62     0  00:00        0.00
  R0019849             JUNCTION     0.00     0.50    69.02     0  05:05        0.49
  R0019371             JUNCTION     0.00     0.00    70.41     0  00:00        0.00
  R0019718             JUNCTION     0.01     0.45    69.87     0  05:06        0.45
  R0021442             JUNCTION     0.01     1.06    71.11     0  05:05        1.02
  R0019247             JUNCTION     0.01     0.44    70.32     0  05:05        0.41
  R0019719             JUNCTION     0.01     0.29    69.97     0  05:05        0.29
  R0019767             JUNCTION     0.01     0.40    65.13     0  05:06        0.40
  R0019768             JUNCTION     0.01     0.34    64.11     0  05:07        0.34
  R0021453             JUNCTION     0.00     0.10    70.05     0  05:05        0.10
  R0019839             JUNCTION     0.00     0.24    69.63     0  05:05        0.23
  R0019717             JUNCTION     0.01     0.39    69.73     0  05:06        0.39
  R0019252             JUNCTION     0.00     0.43    70.62     0  05:05        0.40
  R0019721             JUNCTION     0.00     0.23    70.10     0  05:05        0.23
  R0019942             JUNCTION     0.00     0.42    69.07     0  05:05        0.42
  R0019206             JUNCTION     0.00     0.00    69.07     0  00:00        0.00
  R0019840             JUNCTION     0.00     0.21    69.18     0  05:05        0.21
  R0043702             JUNCTION     0.01     0.32    69.02     0  05:05        0.31
  R0019723             JUNCTION     0.00     0.15    70.23     0  05:05        0.15
  R0019724             JUNCTION     0.00     0.08    70.24     0  05:05        0.08
  R0021433             JUNCTION     0.00     1.02    71.41     0  05:05        0.96
  R0021435             JUNCTION     0.00     1.13    71.31     0  05:05        1.07
  R0019769             OUTFALL      0.01     0.34    63.72     0  05:07        0.34
  
  
  *******************
  Node Inflow Summary
  *******************
  
  -------------------------------------------------------------------------------------------------
                                  Maximum  Maximum                  Lateral       Total        Flow
                                  Lateral    Total  Time of Max      Inflow      Inflow     Balance
                                   Inflow   Inflow   Occurrence      Volume      Volume       Error
  Node                 Type           CMS      CMS  days hr:min    10^6 ltr    10^6 ltr     Percent
  -------------------------------------------------------------------------------------------------
  R0019466             JUNCTION     0.055    0.079     0  05:03      0.0567       0.103       0.107
  R0019468             JUNCTION     0.034    0.099     0  05:05      0.0332       0.136      -0.028
  R0019831             JUNCTION     0.044    0.044     0  05:05      0.0446      0.0446       0.080
  R0019825             JUNCTION     0.044    0.086     0  05:04      0.0448      0.0893       0.165
  R0019843             JUNCTION     0.000    1.054     0  05:06           0         1.4      -0.002
  R0019368             JUNCTION     0.000    1.055     0  05:06           0         1.4       0.002
  R0019369             JUNCTION     0.000    1.112     0  05:06           0         1.4      -0.001
  R0019370             JUNCTION     0.000    1.054     0  05:06           0         1.4       0.001
  R0019345             JUNCTION     0.000    0.081     0  05:05           0      0.0873      -0.022
  R0019346             JUNCTION     0.007    0.135     0  05:05     0.00573       0.147       0.011
  R0043600             JUNCTION     0.000    0.147     0  05:05           0        0.17      -0.025
  R0019203             JUNCTION     0.014    0.331     0  05:05      0.0125       0.383      -0.000
  R0043594             JUNCTION     0.075    0.110     0  05:05      0.0805       0.116      -0.030
  R0021458             JUNCTION     0.060    0.158     0  05:05      0.0628       0.178      -0.009
  R0019202             JUNCTION     0.020    0.180     0  05:05       0.019         0.2      -0.140
  R0019373             JUNCTION     0.049    0.049     0  05:05      0.0493      0.0493       0.624
  R0019254             JUNCTION     0.040    0.082     0  05:05      0.0402      0.0874       0.049
  R0019716             JUNCTION     0.060    0.627     0  05:06      0.0624       0.784      -0.011
  R0019946             JUNCTION     0.000    0.625     0  05:06           0       0.784      -0.000
  R0013935             JUNCTION     0.039    0.039     0  05:05      0.0383      0.0383       0.052
  R0019939             JUNCTION     0.015    0.049     0  05:04       0.014      0.0523      -0.038
  R0019944             JUNCTION     0.036    0.770     0  05:06      0.0356        1.01       0.008
  R0043703             JUNCTION     0.043    0.653     0  05:06      0.0436       0.828       0.012
  R0019945             JUNCTION     0.000    0.753     0  05:06           0       0.969      -0.010
  R0039621             JUNCTION     0.000    0.004     0  05:01           0    0.000866       1.054
  R0019838             JUNCTION     0.081    0.081     0  05:05      0.0872       0.088      -0.011
  R0039606             JUNCTION     0.000    0.144     0  05:05           0       0.178       0.040
  R0019204             JUNCTION     0.000    0.000     0  00:00           0           0       0.000 ltr
  R0019205             JUNCTION     0.000    0.000     0  00:00           0           0       0.000 ltr
  R0019849             JUNCTION     0.000    0.114     0  05:05           0       0.142       0.016
  R0019371             JUNCTION     0.000    0.000     0  00:00           0           0       0.000 ltr
  R0019718             JUNCTION     0.052    0.366     0  05:05      0.0534       0.436      -0.896
  R0021442             JUNCTION     0.060    0.127     0  05:05      0.0628       0.142       0.049
  R0019247             JUNCTION     0.029    0.150     0  05:05      0.0277        0.17       0.009
  R0019719             JUNCTION     0.030    0.156     0  05:05      0.0292       0.176      -0.009
  R0019767             JUNCTION     0.000    1.049     0  05:06           0         1.4      -0.006
  R0019768             JUNCTION     0.000    1.050     0  05:07           0         1.4       0.009
  R0021453             JUNCTION     0.036    0.036     0  05:05       0.035       0.035      -0.089
  R0019839             JUNCTION     0.080    0.153     0  05:05      0.0861       0.173      -0.001
  R0019717             JUNCTION     0.098    0.588     0  05:06       0.108       0.725       0.421
  R0019252             JUNCTION     0.047    0.047     0  05:05      0.0472      0.0472      -0.059
  R0019721             JUNCTION     0.014    0.055     0  05:05      0.0123       0.054       0.024
  R0019942             JUNCTION     0.000    0.077     0  05:05           0      0.0892      -0.201
  R0019206             JUNCTION     0.000    0.000     0  00:00           0           0       0.000 ltr
  R0019840             JUNCTION     0.000    0.248     0  05:05           0       0.309       0.003
  R0043702             JUNCTION     0.080    0.319     0  05:05      0.0862       0.395      -0.003
  R0019723             JUNCTION     0.034    0.043     0  05:05      0.0329      0.0416      -0.050
  R0019724             JUNCTION     0.010    0.010     0  05:05     0.00871     0.00871      -0.049
  R0021433             JUNCTION     0.048    0.048     0  05:05       0.049       0.049      -0.193
  R0021435             JUNCTION     0.031    0.073     0  05:05      0.0302      0.0793       0.022
  R0019769             OUTFALL      0.000    1.050     0  05:07           0         1.4       0.000
  
  
  **********************
  Node Surcharge Summary
  **********************
  
  Surcharging occurs when water rises above the top of the highest conduit.
  ---------------------------------------------------------------------
                                               Max. Height   Min. Depth
                                   Hours       Above Crown    Below Rim
  Node                 Type      Surcharged         Meters       Meters
  ---------------------------------------------------------------------
  R0019466             JUNCTION        0.08          0.273        2.237
  R0019468             JUNCTION        0.08          0.209        2.221
  R0019825             JUNCTION        0.05          0.232        0.968
  R0019345             JUNCTION        0.01          0.023        1.727
  R0019373             JUNCTION        0.02          0.062        2.438
  R0019254             JUNCTION        0.04          0.166        1.664
  R0019939             JUNCTION        0.08          0.192        1.428
  R0019849             JUNCTION        0.09          0.195        1.735
  R0021442             JUNCTION        0.10          0.764        0.986
  R0019247             JUNCTION        0.02          0.036        1.824
  R0019252             JUNCTION        0.02          0.132        1.508
  R0019942             JUNCTION        0.06          0.125        1.525
  R0021433             JUNCTION        0.06          0.718        1.132
  R0021435             JUNCTION        0.08          0.830        0.980
  
  
  *********************
  Node Flooding Summary
  *********************
  
  No nodes were flooded.
  
  
  ***********************
  Outfall Loading Summary
  ***********************
  
  -----------------------------------------------------------
                         Flow       Avg       Max       Total
                         Freq      Flow      Flow      Volume
  Outfall Node           Pcnt       CMS       CMS    10^6 ltr
  -----------------------------------------------------------
  R0019769              13.90     0.037     1.050       1.400
  -----------------------------------------------------------
  System                13.90     0.037     1.050       1.400
  
  
  ********************
  Link Flow Summary
  ********************
  
  -----------------------------------------------------------------------------
                                 Maximum  Time of Max   Maximum    Max/    Max/
                                  |Flow|   Occurrence   |Veloc|    Full    Full
  Link                 Type          CMS  days hr:min     m/sec    Flow   Depth
  -----------------------------------------------------------------------------
  H0014431             CONDUIT     0.069     0  05:03      0.97    1.27    1.00
  H0014433             CONDUIT     0.042     0  05:04      0.71    0.54    1.00
  H0014352             CONDUIT     1.055     0  05:06      2.79    0.43    0.58
  H0014373             CONDUIT     1.054     0  05:06      3.72    0.49    0.46
  H0017981             CONDUIT     0.080     0  05:05      1.19    2.27    0.90
  H0017755             CONDUIT     0.144     0  05:05      1.43    1.17    0.76
  H0017791             CONDUIT     0.100     0  05:05      0.62    0.15    0.30
  H0017357             CONDUIT     0.032     0  05:05      0.51    0.51    0.83
  H0018216             CONDUIT     0.081     0  05:05      1.14    1.47    1.00
  H0016792             CONDUIT     0.625     0  05:06      1.86    0.36    0.52
  H0019507             CONDUIT     0.034     0  05:04      0.68    0.48    1.00
  H0019998             CONDUIT     0.770     0  05:06      3.06    0.31    0.42
  H0019576             CONDUIT     0.656     0  05:06      2.21    0.44    0.48
  H0020087             CONDUIT     0.006     0  05:06      0.13    0.03    0.41
  H0020211             CONDUIT     0.632     0  05:06      1.83    1.58    0.54
  H0018982             CONDUIT     0.144     0  05:05      0.79    0.23    0.35
  H0018753             CONDUIT     0.035     0  05:03      0.61    0.50    1.00
  H0018845             CONDUIT     0.000     0  00:00      0.00    0.00    0.00
  H0018863             CONDUIT     0.046     0  05:04      0.65    1.08    1.00
  H0019156             CONDUIT     0.000     0  00:00      0.00    0.00    0.00
  H0018929             CONDUIT     0.332     0  05:06      1.20    0.29    0.45
  H0018440             CONDUIT     0.123     0  05:05      1.75    2.21    1.00
  H0018456             CONDUIT     0.134     0  05:05      1.42    0.82    0.71
  H0018968             CONDUIT     1.050     0  05:07      4.22    0.40    0.41
  H0022036             CONDUIT     0.035     0  05:05      0.47    0.03    0.18
  H0021806             CONDUIT     0.147     0  05:05      1.20    1.30    0.94
  H0022111             CONDUIT     0.074     0  05:05      0.78    0.53    0.49
  H0021440             CONDUIT     0.592     0  05:06      2.24    0.38    0.43
  H0021704             CONDUIT     0.372     0  05:06      1.38    0.71    0.44
  H0020521             CONDUIT     0.044     0  05:05      0.62    0.89    1.00
  H0020755             CONDUIT     0.050     0  05:05      0.60    0.55    0.64
  H0020530             CONDUIT     1.112     0  05:06      2.81    0.95    0.60
  H0020618             CONDUIT     0.753     0  05:06      2.87    0.47    0.43
  H0021163             CONDUIT     0.077     0  05:05      1.15    1.28    1.00
  H0020497             CONDUIT     0.000     0  00:00      0.00    0.00    0.69
  H0024325             CONDUIT     0.150     0  05:05      1.77    0.45    0.45
  H0023585             CONDUIT     0.318     0  05:05      2.43    0.73    0.64
  H0024098             CONDUIT     0.114     0  05:05      1.61    1.32    1.00
  H0024235             CONDUIT     0.153     0  05:06      1.39    0.63    0.55
  H0024282             CONDUIT     0.000     0  00:00      0.00    0.00    0.00
  H0024308             CONDUIT     1.050     0  05:07      4.72    0.31    0.38
  H0024498             CONDUIT     0.098     0  05:05      1.39    1.52    1.00
  H0026990             CONDUIT     0.042     0  05:05      0.70    0.31    0.48
  H0041650             CONDUIT     0.178     0  05:05      0.78    0.21    0.39
  H0041011             CONDUIT     0.077     0  05:05      1.09    0.76    1.00
  H0045103             CONDUIT     0.143     0  05:06      0.73    0.18    0.37
  H0045104             CONDUIT     1.049     0  05:06      3.95    0.37    0.43
  H0045105             CONDUIT     0.010     0  05:05      0.38    0.17    0.40
  H0045106             CONDUIT     0.248     0  05:05      2.35    0.33    0.53
  H0045107             CONDUIT     0.043     0  05:05      0.71    0.70    1.00
  H0045108             CONDUIT     0.070     0  05:05      1.00    1.27    1.00
  
  
  ***************************
  Flow Classification Summary
  ***************************
  
  -------------------------------------------------------------------------------------
                      Adjusted    ---------- Fraction of Time in Flow Class ---------- 
                       /Actual         Up    Down  Sub   Sup   Up    Down  Norm  Inlet 
  Conduit               Length    Dry  Dry   Dry   Crit  Crit  Crit  Crit  Ltd   Ctrl  
  -------------------------------------------------------------------------------------
  H0014431                1.00   0.04  0.00  0.00  0.96  0.00  0.00  0.00  0.96  0.00
  H0014433                1.00   0.04  0.00  0.00  0.96  0.00  0.00  0.00  0.96  0.00
  H0014352                1.00   0.04  0.00  0.00  0.85  0.12  0.00  0.00  0.96  0.00
  H0014373                1.00   0.04  0.00  0.00  0.83  0.13  0.00  0.00  0.81  0.00
  H0017981                1.00   0.04  0.00  0.00  0.00  0.00  0.00  0.96  0.00  0.00
  H0017755                1.00   0.04  0.00  0.00  0.00  0.00  0.00  0.96  0.00  0.00
  H0017791                1.00   0.04  0.00  0.00  0.96  0.00  0.00  0.00  0.96  0.00
  H0017357                1.00   0.04  0.96  0.00  0.00  0.00  0.00  0.00  0.93  0.00
  H0018216                1.00   0.04  0.82  0.00  0.14  0.00  0.00  0.00  0.96  0.00
  H0016792                1.00   0.04  0.82  0.00  0.15  0.00  0.00  0.00  0.96  0.00
  H0019507                1.00   0.04  0.00  0.00  0.96  0.00  0.00  0.00  0.96  0.00
  H0019998                1.00   0.04  0.00  0.00  0.83  0.13  0.00  0.00  0.15  0.00
  H0019576                1.00   0.04  0.00  0.00  0.85  0.11  0.00  0.00  0.14  0.00
  H0020087                1.00   0.04  0.95  0.00  0.01  0.00  0.00  0.00  0.93  0.00
  H0020211                1.00   0.04  0.00  0.00  0.96  0.00  0.00  0.00  0.81  0.00
  H0018982                1.00   0.04  0.00  0.00  0.96  0.00  0.00  0.00  0.84  0.00
  H0018753                1.00   0.04  0.00  0.00  0.96  0.00  0.00  0.00  0.96  0.00
  H0018845                1.00   1.00  0.00  0.00  0.00  0.00  0.00  0.00  0.00  0.00
  H0018863                1.00   0.04  0.00  0.00  0.96  0.00  0.00  0.00  0.96  0.00
  H0019156                1.00   1.00  0.00  0.00  0.00  0.00  0.00  0.00  0.00  0.00
  H0018929                1.00   0.04  0.82  0.00  0.14  0.00  0.00  0.00  0.96  0.00
  H0018440                1.00   0.04  0.00  0.00  0.96  0.00  0.00  0.00  0.96  0.00
  H0018456                1.00   0.04  0.00  0.00  0.96  0.00  0.00  0.00  0.96  0.00
  H0018968                1.00   0.04  0.00  0.00  0.82  0.14  0.00  0.00  0.83  0.00
  H0022036                1.00   0.04  0.00  0.00  0.02  0.01  0.00  0.93  0.02  0.00
  H0021806                1.00   0.04  0.82  0.00  0.14  0.00  0.00  0.00  0.86  0.00
  H0022111                1.00   0.04  0.00  0.00  0.96  0.00  0.00  0.00  0.00  0.00
  H0021440                1.00   0.04  0.00  0.00  0.85  0.12  0.00  0.00  0.01  0.00
  H0021704                1.00   0.04  0.00  0.00  0.00  0.00  0.00  0.96  0.00  0.00
  H0020521                1.00   0.04  0.00  0.00  0.96  0.00  0.00  0.00  0.96  0.00
  H0020755                1.00   0.04  0.83  0.00  0.13  0.00  0.00  0.00  0.96  0.00
  H0020530                1.00   0.04  0.00  0.00  0.85  0.11  0.00  0.00  0.01  0.00
  H0020618                1.00   0.04  0.00  0.00  0.84  0.12  0.00  0.00  0.83  0.00
  H0021163                1.00   0.04  0.00  0.00  0.96  0.01  0.00  0.00  0.83  0.00
  H0020497                1.20   0.04  0.96  0.00  0.00  0.00  0.00  0.00  0.00  0.00
  H0024325                1.00   0.04  0.00  0.00  0.85  0.12  0.00  0.00  0.84  0.00
  H0023585                1.00   0.04  0.00  0.00  0.00  0.00  0.00  0.96  0.00  0.00
  H0024098                1.00   0.04  0.82  0.00  0.14  0.00  0.00  0.00  0.96  0.00
  H0024235                1.00   0.04  0.00  0.00  0.00  0.00  0.00  0.96  0.00  0.00
  H0024282                1.00   1.00  0.00  0.00  0.00  0.00  0.00  0.00  0.00  0.00
  H0024308                1.00   0.04  0.00  0.00  0.81  0.15  0.00  0.00  0.08  0.00
  H0024498                1.00   0.04  0.00  0.00  0.00  0.00  0.00  0.96  0.00  0.00
  H0026990                1.00   0.04  0.00  0.00  0.96  0.00  0.00  0.00  0.96  0.00
  H0041650                1.00   0.86  0.01  0.00  0.13  0.00  0.00  0.00  0.95  0.00
  H0041011                1.00   0.04  0.00  0.00  0.96  0.00  0.00  0.00  0.96  0.00
  H0045103                1.00   0.04  0.00  0.00  0.96  0.00  0.00  0.00  0.85  0.00
  H0045104                1.00   0.04  0.00  0.00  0.82  0.14  0.00  0.00  0.14  0.00
  H0045105                1.00   0.04  0.00  0.00  0.96  0.00  0.00  0.00  0.96  0.00
  H0045106                1.00   0.04  0.82  0.00  0.02  0.12  0.00  0.00  0.96  0.00
  H0045107                1.00   0.04  0.00  0.00  0.96  0.00  0.00  0.00  0.96  0.00
  H0045108                1.00   0.04  0.00  0.00  0.96  0.00  0.00  0.00  0.96  0.00
  
  
  *************************
  Conduit Surcharge Summary
  *************************
  
  ----------------------------------------------------------------------------
                                                           Hours        Hours 
                         --------- Hours Full --------   Above Full   Capacity
  Conduit                Both Ends  Upstream  Dnstream   Normal Flow   Limited
  ----------------------------------------------------------------------------
  H0014431                    0.08      0.08      0.08      0.10         0.08
  H0014433                    0.01      0.01      0.05      0.01         0.01
  H0017981                    0.01      0.01      0.01      0.11         0.01
  H0017755                    0.01      0.01      0.01      0.04         0.01
  H0017357                    0.01      0.01      0.02      0.01         0.01
  H0018216                    0.01      0.04      0.01      0.07         0.03
  H0019507                    0.01      0.01      0.08      0.01         0.01
  H0020211                    0.01      0.01      0.01      0.09         0.01
  H0018753                    0.02      0.02      0.08      0.01         0.01
  H0018863                    0.08      0.08      0.09      0.01         0.01
  H0018440                    0.06      0.10      0.06      0.13         0.09
  H0021806                    0.01      0.02      0.01      0.05         0.01
  H0020521                    0.02      0.02      0.04      0.01         0.01
  H0021163                    0.04      0.05      0.06      0.06         0.03
  H0024098                    0.09      0.09      0.12      0.06         0.05
  H0024498                    0.01      0.08      0.01      0.11         0.05
  H0041011                    0.06      0.06      0.09      0.01         0.01
  H0045107                    0.06      0.06      0.08      0.01         0.01
  H0045108                    0.08      0.08      0.10      0.05         0.04
  

  Analysis begun on:  Fri Mar 22 15:55:55 2024
  Analysis ended on:  Fri Mar 22 15:56:05 2024
  Total elapsed time: 00:00:10