
  EPA STORM WATER MANAGEMENT MODEL - VERSION 5.2 (Build 5.2.4)
  PYSWMM TOOLKIT API - VERSION v1.0 (2023-11-27)
  ------------------------------------------------------------

  Gievenbeck_e2_T50D90 
  
  ****************
  Analysis Options
  ****************
  Flow Units ............... CMS
  Process Models:
    Rainfall/Runoff ........ YES
    RDII ................... NO
    Snowmelt ............... NO
    Groundwater ............ NO
    Flow Routing ........... YES
    Ponding Allowed ........ NO
    Water Quality .......... NO
  Infiltration Method ...... HORTON
  Flow Routing Method ...... DYNWAVE
  Surcharge Method ......... SLOT
  Starting Date ............ 01/01/2024 00:00:00
  Ending Date .............. 01/04/2024 04:00:00
  Antecedent Dry Days ...... 14.0
  Report Time Step ......... 00:01:00
  Wet Time Step ............ 00:01:00
  Dry Time Step ............ 00:01:00
  Routing Time Step ........ 1.00 sec
  Variable Time Step ....... YES
  Maximum Trials ........... 8
  Number of Threads ........ 1
  Head Tolerance ........... 0.001500 m
  
  
  **************************        Volume         Depth
  Runoff Quantity Continuity     hectare-m            mm
  **************************     ---------       -------
  Total Precipitation ......         0.445        43.920
  Evaporation Loss .........         0.010         0.963
  Infiltration Loss ........         0.180        17.813
  Surface Runoff ...........         0.255        25.225
  Final Storage ............         0.000         0.000
  Continuity Error (%) .....        -0.183
  
  
  **************************        Volume        Volume
  Flow Routing Continuity        hectare-m      10^6 ltr
  **************************     ---------     ---------
  Dry Weather Inflow .......         0.000         0.000
  Wet Weather Inflow .......         0.255         2.553
  Groundwater Inflow .......         0.000         0.000
  RDII Inflow ..............         0.000         0.000
  External Inflow ..........         0.000         0.000
  External Outflow .........         0.245         2.449
  Flooding Loss ............         0.011         0.107
  Evaporation Loss .........         0.000         0.000
  Exfiltration Loss ........         0.000         0.000
  Initial Stored Volume ....         0.000         0.000
  Final Stored Volume ......         0.000         0.000
  Continuity Error (%) .....        -0.093
  
  
  *************************
  Highest Continuity Errors
  *************************
  Node R0019206 (5.51%)
  Node R0019373 (1.03%)
  
  
  ***************************
  Time-Step Critical Elements
  ***************************
  None
  
  
  ********************************
  Highest Flow Instability Indexes
  ********************************
  All links are stable.
  
  
  *********************************
  Most Frequent Nonconverging Nodes
  *********************************
  Convergence obtained at all time steps.
  
  
  *************************
  Routing Time Step Summary
  *************************
  Minimum Time Step           :     0.50 sec
  Average Time Step           :     1.00 sec
  Maximum Time Step           :     1.00 sec
  % of Time in Steady State   :     0.00
  Average Iterations per Step :     2.00
  % of Steps Not Converging   :     0.00
  Time Step Frequencies       :
      1.000 -  0.871 sec      :    99.98 %
      0.871 -  0.758 sec      :     0.01 %
      0.758 -  0.660 sec      :     0.00 %
      0.660 -  0.574 sec      :     0.00 %
      0.574 -  0.500 sec      :     0.00 %
  
  
  ***************************
  Subcatchment Runoff Summary
  ***************************
  
  ------------------------------------------------------------------------------------------------------------------------------
                            Total      Total      Total      Total     Imperv       Perv      Total       Total     Peak  Runoff
                           Precip      Runon       Evap      Infil     Runoff     Runoff     Runoff      Runoff   Runoff   Coeff
  Subcatchment                 mm         mm         mm         mm         mm         mm         mm    10^6 ltr      CMS
  ------------------------------------------------------------------------------------------------------------------------------
  EZG_368                   43.92       0.00       0.96      17.94      21.06       7.20      25.10        0.10     0.16   0.571
  EZG_392                   43.92       0.00       0.95      17.84      21.07       7.31      25.21        0.08     0.13   0.574
  EZG_352                   43.92       0.00       0.96      18.10      21.05       7.03      24.93        0.15     0.21   0.568
  EZG_372                   43.92       0.00       0.94      17.52      21.09       7.65      25.57        0.03     0.06   0.582
  EZG_416                   43.92       0.00       0.95      17.79      21.07       7.35      25.26        0.07     0.12   0.575
  EZG_388                   43.92       0.00       0.96      17.98      21.06       7.15      25.05        0.11     0.17   0.570
  EZG_394                   43.92       0.00       0.95      17.78      21.07       7.37      25.28        0.07     0.11   0.576
  EZG_400                   43.92       0.00       0.95      17.75      21.07       7.40      25.31        0.07     0.10   0.576
  EZG_390                   43.92       0.00       0.95      17.83      21.07       7.32      25.22        0.08     0.12   0.574
  EZG_350                   43.92       0.00       0.96      17.99      21.06       7.15      25.05        0.12     0.17   0.570
  EZG_370                   43.92       0.00       0.95      17.88      21.06       7.26      25.17        0.09     0.14   0.573
  EZG_398                   43.92       0.00       0.94      17.42      21.10       7.75      25.69        0.03     0.05   0.585
  EZG_382                   43.92       0.00       0.94      17.38      21.10       7.79      25.72        0.02     0.04   0.586
  EZG_374                   43.92       0.00       1.15      14.46      25.26       6.92      28.39        0.11     0.17   0.646
  EZG_412                   43.92       0.00       0.93      17.18      21.12       8.02      25.97        0.01     0.02   0.591
  EZG_344                   43.92       0.00       0.95      17.74      21.07       7.41      25.32        0.06     0.10   0.577
  EZG_376                   43.92       0.00       0.95      17.65      21.08       7.50      25.42        0.05     0.08   0.579
  EZG_356                   43.92       0.00       0.97      18.14      21.05       6.99      24.88        0.16     0.23   0.567
  EZG_386                   43.92       0.00       0.97      18.25      21.04       6.88      24.77        0.20     0.28   0.564
  EZG_380                   43.92       0.00       0.96      17.91      21.06       7.23      25.13        0.10     0.15   0.572
  EZG_378                   43.92       0.00       0.95      17.86      21.06       7.28      25.19        0.09     0.13   0.573
  EZG_414                   43.92       0.00       0.94      17.38      21.10       7.79      25.73        0.02     0.04   0.586
  EZG_402                   43.92       0.00       0.95      17.84      21.07       7.31      25.21        0.08     0.13   0.574
  EZG_358                   43.92       0.00       0.96      18.13      21.05       7.00      24.89        0.16     0.23   0.567
  EZG_364                   43.92       0.00       0.96      18.13      21.05       7.00      24.89        0.16     0.23   0.567
  EZG_410                   43.92       0.00       0.95      17.67      21.08       7.48      25.40        0.05     0.09   0.578
  EZG_366                   43.92       0.00       0.95      17.72      21.07       7.43      25.35        0.06     0.10   0.577
  EZG_18259                 43.92       0.00       0.95      17.72      21.07       7.44      25.35        0.06     0.10   0.577
  EZG_18258                 43.92       0.00       0.93      17.28      21.11       7.90      25.84        0.02     0.03   0.588
  EZG_346                   43.92       0.00       0.94      18.23      20.64       7.29      24.83        0.09     0.14   0.565
  EZG_348                   43.92       0.00       0.93      18.03      20.66       7.50      25.06        0.06     0.09   0.570
  
  
  ******************
  Node Depth Summary
  ******************
  
  ---------------------------------------------------------------------------------
                                 Average  Maximum  Maximum  Time of Max    Reported
                                   Depth    Depth      HGL   Occurrence   Max Depth
  Node                 Type       Meters   Meters   Meters  days hr:min      Meters
  ---------------------------------------------------------------------------------
  R0019466             JUNCTION     0.01     2.75    72.20     0  02:35        2.70
  R0019468             JUNCTION     0.01     2.69    72.00     0  02:35        2.64
  R0019831             JUNCTION     0.00     1.66    70.83     0  02:33        1.66
  R0019825             JUNCTION     0.01     1.50    70.34     0  02:32        1.50
  R0019843             JUNCTION     0.01     1.75    69.38     0  02:34        1.55
  R0019368             JUNCTION     0.01     1.80    68.59     0  02:34        1.52
  R0019369             JUNCTION     0.01     0.86    67.45     0  02:35        0.85
  R0019370             JUNCTION     0.00     0.66    66.56     0  02:35        0.64
  R0019345             JUNCTION     0.00     1.55    71.45     0  02:35        1.44
  R0019346             JUNCTION     0.00     1.42    71.22     0  02:35        1.29
  R0043600             JUNCTION     0.00     1.04    70.71     0  02:35        0.91
  R0019203             JUNCTION     0.00     1.04    70.58     0  02:35        0.92
  R0043594             JUNCTION     0.00     0.88    70.61     0  02:36        0.78
  R0021458             JUNCTION     0.00     0.95    70.60     0  02:35        0.86
  R0019202             JUNCTION     0.00     1.03    70.61     0  02:35        0.90
  R0019373             JUNCTION     0.00     2.30    71.97     0  02:35        2.25
  R0019254             JUNCTION     0.01     2.09    72.13     0  02:35        2.09
  R0019716             JUNCTION     0.01     1.32    70.33     0  02:35        1.16
  R0019946             JUNCTION     0.01     1.49    70.11     0  02:35        1.33
  R0013935             JUNCTION     0.00     1.62    70.45     0  02:33        1.62
  R0019939             JUNCTION     0.00     1.75    70.32     0  02:35        1.73
  R0019944             JUNCTION     0.00     1.21    69.49     0  02:35        1.17
  R0043703             JUNCTION     0.01     1.24    69.84     0  02:34        1.08
  R0019945             JUNCTION     0.01     1.20    69.60     0  02:35        1.17
  R0039621             JUNCTION     0.00     1.56    71.13     0  02:34        1.56
  R0019838             JUNCTION     0.00     1.80    71.26     0  02:34        1.76
  R0039606             JUNCTION     0.00     1.03    70.62     0  02:35        0.90
  R0019204             JUNCTION     0.00     0.00    69.91     0  00:00        0.00
  R0019205             JUNCTION     0.00     0.00    69.62     0  00:00        0.00
  R0019849             JUNCTION     0.00     1.53    70.05     0  02:35        1.52
  R0019371             JUNCTION     0.00     0.00    70.41     0  00:00        0.00
  R0019718             JUNCTION     0.01     1.12    70.54     0  02:35        0.98
  R0021442             JUNCTION     0.01     2.05    72.10     0  02:32        2.05
  R0019247             JUNCTION     0.00     1.39    71.27     0  02:35        1.30
  R0019719             JUNCTION     0.00     1.21    70.89     0  02:35        1.05
  R0019767             JUNCTION     0.01     0.70    65.43     0  02:35        0.69
  R0019768             JUNCTION     0.00     0.57    64.34     0  02:35        0.56
  R0021453             JUNCTION     0.00     0.79    70.74     0  02:36        0.51
  R0019839             JUNCTION     0.00     1.92    71.31     0  02:34        1.82
  R0019717             JUNCTION     0.01     1.14    70.48     0  02:35        0.97
  R0019252             JUNCTION     0.00     1.94    72.13     0  02:32        1.94
  R0019721             JUNCTION     0.00     1.49    71.36     0  02:35        1.39
  R0019942             JUNCTION     0.00     1.46    70.11     0  02:35        1.43
  R0019206             JUNCTION     0.00     0.07    69.14     0  02:34        0.03
  R0019840             JUNCTION     0.00     1.96    70.93     0  02:35        1.94
  R0043702             JUNCTION     0.01     2.14    70.84     0  02:35        2.13
  R0019723             JUNCTION     0.00     1.40    71.48     0  02:35        1.33
  R0019724             JUNCTION     0.00     1.32    71.48     0  02:35        1.25
  R0021433             JUNCTION     0.01     2.15    72.54     0  02:32        2.15
  R0021435             JUNCTION     0.01     2.11    72.29     0  02:32        2.11
  R0019769             OUTFALL      0.00     0.57    63.95     0  02:35        0.56
  
  
  *******************
  Node Inflow Summary
  *******************
  
  -------------------------------------------------------------------------------------------------
                                  Maximum  Maximum                  Lateral       Total        Flow
                                  Lateral    Total  Time of Max      Inflow      Inflow     Balance
                                   Inflow   Inflow   Occurrence      Volume      Volume       Error
  Node                 Type           CMS      CMS  days hr:min    10^6 ltr    10^6 ltr     Percent
  -------------------------------------------------------------------------------------------------
  R0019466             JUNCTION     0.157    0.157     0  02:35       0.104       0.152       0.037
  R0019468             JUNCTION     0.098    0.168     0  02:34      0.0607       0.197      -0.011
  R0019831             JUNCTION     0.127    0.127     0  02:35      0.0816      0.0816       0.107
  R0019825             JUNCTION     0.128    0.228     0  02:35      0.0819       0.161       0.100
  R0019843             JUNCTION     0.000    2.522     0  02:34           0        2.45      -0.063
  R0019368             JUNCTION     0.000    2.439     0  02:35           0        2.45      -0.037
  R0019369             JUNCTION     0.000    2.452     0  02:35           0        2.45      -0.017
  R0019370             JUNCTION     0.000    2.471     0  02:35           0        2.45       0.001
  R0019345             JUNCTION     0.000    0.161     0  02:33           0       0.146       0.034
  R0019346             JUNCTION     0.020    0.307     0  02:34      0.0104       0.255       0.014
  R0043600             JUNCTION     0.000    0.220     0  02:34           0       0.256      -0.107
  R0019203             JUNCTION     0.041    0.894     0  02:37      0.0227       0.698      -0.023
  R0043594             JUNCTION     0.214    0.394     0  02:36       0.147       0.218      -0.102
  R0021458             JUNCTION     0.172    0.482     0  02:36       0.115       0.331      -0.058
  R0019202             JUNCTION     0.060    0.692     0  02:37      0.0346       0.418      -0.313
  R0019373             JUNCTION     0.139    0.219     0  02:35      0.0902       0.106       1.037
  R0019254             JUNCTION     0.116    0.170     0  02:32      0.0736       0.146       0.022
  R0019716             JUNCTION     0.171    1.563     0  02:34       0.114        1.42      -0.014
  R0019946             JUNCTION     0.000    1.496     0  02:34           0        1.42      -0.004
  R0013935             JUNCTION     0.112    0.112     0  02:35      0.0701      0.0701       0.054
  R0019939             JUNCTION     0.045    0.126     0  02:33      0.0254      0.0918      -0.064
  R0019944             JUNCTION     0.105    1.794     0  02:34      0.0652        1.79       0.019
  R0043703             JUNCTION     0.125    1.636     0  02:34      0.0798         1.5      -0.017
  R0019945             JUNCTION     0.000    1.747     0  02:34           0        1.72      -0.012
  R0039621             JUNCTION     0.000    0.160     0  02:35           0      0.0143      -1.394
  R0019838             JUNCTION     0.229    0.229     0  02:35       0.159       0.164      -0.061
  R0039606             JUNCTION     0.000    0.575     0  02:37           0       0.327       0.125
  R0019204             JUNCTION     0.000    0.000     0  00:00           0           0       0.000 ltr
  R0019205             JUNCTION     0.000    0.000     0  00:00           0           0       0.000 ltr
  R0019849             JUNCTION     0.000    0.219     0  02:33           0       0.225       0.001
  R0019371             JUNCTION     0.000    0.000     0  00:00           0           0       0.000 ltr
  R0019718             JUNCTION     0.149    0.974     0  02:37      0.0978       0.796      -0.470
  R0021442             JUNCTION     0.165    0.238     0  02:35       0.108       0.222       0.016
  R0019247             JUNCTION     0.084    0.222     0  02:35      0.0507       0.256       0.122
  R0019719             JUNCTION     0.088    0.388     0  02:34      0.0533       0.308       0.544
  R0019767             JUNCTION     0.000    2.457     0  02:35           0        2.45      -0.005
  R0019768             JUNCTION     0.000    2.456     0  02:35           0        2.45       0.006
  R0021453             JUNCTION     0.103    0.260     0  02:36       0.064      0.0676       0.037
  R0019839             JUNCTION     0.227    0.407     0  02:34       0.158       0.307       0.060
  R0019717             JUNCTION     0.276    1.478     0  02:34       0.198         1.3       0.067
  R0019252             JUNCTION     0.134    0.134     0  02:35      0.0863      0.0863      -0.026
  R0019721             JUNCTION     0.040    0.156     0  02:34      0.0224      0.0986       0.097
  R0019942             JUNCTION     0.000    0.124     0  02:32           0       0.133      -0.231
  R0019206             JUNCTION     0.000    0.064     0  02:34           0    0.000648       5.830
  R0019840             JUNCTION     0.000    0.510     0  02:34           0       0.503      -0.044
  R0043702             JUNCTION     0.227    0.700     0  02:34       0.158       0.661       0.429
  R0019723             JUNCTION     0.098    0.122     0  02:34      0.0602      0.0763      -0.171
  R0019724             JUNCTION     0.030    0.043     0  02:33      0.0158       0.016      -0.436
  R0021433             JUNCTION     0.139    0.139     0  02:35      0.0904      0.0904      -0.116
  R0021435             JUNCTION     0.091    0.162     0  02:35      0.0557       0.135      -0.034
  R0019769             OUTFALL      0.000    2.464     0  02:35           0        2.45       0.000
  
  
  **********************
  Node Surcharge Summary
  **********************
  
  Surcharging occurs when water rises above the top of the highest conduit.
  ---------------------------------------------------------------------
                                               Max. Height   Min. Depth
                                   Hours       Above Crown    Below Rim
  Node                 Type      Surcharged         Meters       Meters
  ---------------------------------------------------------------------
  R0019466             JUNCTION        0.22          2.449        0.061
  R0019468             JUNCTION        0.22          2.395        0.035
  R0019831             JUNCTION        0.15          1.360        0.000
  R0019825             JUNCTION        0.19          1.200        0.000
  R0019843             JUNCTION        0.09          0.846        1.774
  R0019368             JUNCTION        0.12          0.897        0.153
  R0019345             JUNCTION        0.14          1.250        0.500
  R0019346             JUNCTION        0.11          1.018        0.722
  R0043600             JUNCTION        0.14          0.645        1.935
  R0019203             JUNCTION        0.01          0.141        1.839
  R0021458             JUNCTION        0.01          0.055        2.025
  R0019202             JUNCTION        0.01          0.126        1.874
  R0019373             JUNCTION        0.16          2.003        0.497
  R0019254             JUNCTION        0.17          1.790        0.040
  R0019716             JUNCTION        0.06          0.415        1.305
  R0019946             JUNCTION        0.09          0.590        0.930
  R0013935             JUNCTION        0.16          1.320        0.000
  R0019939             JUNCTION        0.23          1.447        0.173
  R0019944             JUNCTION        0.04          0.314        1.216
  R0043703             JUNCTION        0.03          0.337        0.983
  R0019945             JUNCTION        0.04          0.297        1.163
  R0039621             JUNCTION        0.06          1.060        0.000
  R0019838             JUNCTION        0.07          1.300        0.000
  R0039606             JUNCTION        0.01          0.133        1.867
  R0019849             JUNCTION        0.24          1.225        0.705
  R0019718             JUNCTION        0.03          0.224        1.776
  R0021442             JUNCTION        0.25          1.750        0.000
  R0019247             JUNCTION        0.16          0.990        0.870
  R0019719             JUNCTION        0.09          0.707        1.093
  R0019839             JUNCTION        0.07          1.419        0.231
  R0019717             JUNCTION        0.02          0.195        1.655
  R0019252             JUNCTION        0.14          1.640        0.000
  R0019721             JUNCTION        0.11          1.094        0.466
  R0019942             JUNCTION        0.20          1.163        0.487
  R0019840             JUNCTION        0.10          1.464        1.106
  R0043702             JUNCTION        0.12          1.638        1.272
  R0019723             JUNCTION        0.08          0.995        0.325
  R0019724             JUNCTION        0.08          1.016        0.434
  R0021433             JUNCTION        0.18          1.850        0.000
  R0021435             JUNCTION        0.22          1.810        0.000
  
  
  *********************
  Node Flooding Summary
  *********************
  
  Flooding refers to all water that overflows a node, whether it ponds or not.
  --------------------------------------------------------------------------
                                                             Total   Maximum
                                 Maximum   Time of Max       Flood    Ponded
                        Hours       Rate    Occurrence      Volume     Depth
  Node                 Flooded       CMS   days hr:min    10^6 ltr    Meters
  --------------------------------------------------------------------------
  R0019831                0.04     0.027      0  02:35       0.002     0.000
  R0019825                0.09     0.150      0  02:35       0.028     0.000
  R0013935                0.04     0.046      0  02:35       0.004     0.000
  R0039621                0.03     0.159      0  02:35       0.010     0.000
  R0019838                0.01     0.032      0  02:34       0.000     0.000
  R0021442                0.08     0.100      0  02:35       0.017     0.000
  R0019252                0.06     0.109      0  02:35       0.014     0.000
  R0021433                0.08     0.067      0  02:35       0.011     0.000
  R0021435                0.10     0.090      0  02:35       0.021     0.000
  
  
  ***********************
  Outfall Loading Summary
  ***********************
  
  -----------------------------------------------------------
                         Flow       Avg       Max       Total
                         Freq      Flow      Flow      Volume
  Outfall Node           Pcnt       CMS       CMS    10^6 ltr
  -----------------------------------------------------------
  R0019769               5.30     0.171     2.464       2.449
  -----------------------------------------------------------
  System                 5.30     0.171     2.464       2.449
  
  
  ********************
  Link Flow Summary
  ********************
  
  -----------------------------------------------------------------------------
                                 Maximum  Time of Max   Maximum    Max/    Max/
                                  |Flow|   Occurrence   |Veloc|    Full    Full
  Link                 Type          CMS  days hr:min     m/sec    Flow   Depth
  -----------------------------------------------------------------------------
  H0014431             CONDUIT     0.085     0  02:33      1.21    1.58    1.00
  H0014433             CONDUIT     0.100     0  02:35      1.42    1.28    1.00
  H0014352             CONDUIT     2.439     0  02:35      3.83    1.00    1.00
  H0014373             CONDUIT     2.471     0  02:35      4.34    1.14    0.84
  H0017981             CONDUIT     0.161     0  02:33      2.28    4.56    1.00
  H0017755             CONDUIT     0.218     0  02:34      1.74    1.77    1.00
  H0017791             CONDUIT     0.396     0  02:36      0.73    0.58    0.97
  H0017357             CONDUIT     0.210     0  02:35      2.97    3.35    1.00
  H0018216             CONDUIT     0.161     0  02:33      2.28    2.93    1.00
  H0016792             CONDUIT     1.496     0  02:34      2.35    0.86    1.00
  H0019507             CONDUIT     0.086     0  02:33      1.22    1.20    1.00
  H0019998             CONDUIT     1.872     0  02:34      3.46    0.75    1.00
  H0019576             CONDUIT     1.550     0  02:34      2.64    1.04    1.00
  H0020087             CONDUIT     0.160     0  02:35      0.81    0.70    1.00
  H0020211             CONDUIT     1.514     0  02:34      2.38    3.77    1.00
  H0018982             CONDUIT     0.575     0  02:37      0.94    0.93    1.00
  H0018753             CONDUIT     0.080     0  02:34      1.13    1.13    1.00
  H0018845             CONDUIT     0.000     0  00:00      0.00    0.00    0.00
  H0018863             CONDUIT     0.122     0  02:33      1.72    2.86    1.00
  H0019156             CONDUIT     0.000     0  00:00      0.00    0.00    0.00
  H0018929             CONDUIT     0.909     0  02:37      1.44    0.79    1.00
  H0018440             CONDUIT     0.159     0  02:32      2.25    2.84    1.00
  H0018456             CONDUIT     0.304     0  02:34      2.42    1.84    1.00
  H0018968             CONDUIT     2.456     0  02:35      5.15    0.94    0.70
  H0022036             CONDUIT     0.275     0  02:36      0.55    0.21    0.88
  H0021806             CONDUIT     0.220     0  02:34      1.75    1.95    1.00
  H0022111             CONDUIT     0.197     0  02:34      1.00    1.41    1.00
  H0021440             CONDUIT     1.401     0  02:34      2.52    0.90    1.00
  H0021704             CONDUIT     1.002     0  02:37      1.69    1.91    1.00
  H0020521             CONDUIT     0.082     0  02:32      1.16    1.66    1.00
  H0020755             CONDUIT     0.149     0  02:34      1.18    1.64    1.00
  H0020530             CONDUIT     2.452     0  02:35      3.85    2.10    1.00
  H0020618             CONDUIT     1.701     0  02:35      3.35    1.05    1.00
  H0021163             CONDUIT     0.124     0  02:32      1.76    2.08    1.00
  H0020497             CONDUIT     0.064     0  02:34      0.91    0.14    1.00
  H0024325             CONDUIT     0.362     0  02:34      1.86    1.08    1.00
  H0023585             CONDUIT     0.697     0  02:34      3.55    1.60    1.00
  H0024098             CONDUIT     0.215     0  02:33      3.04    2.51    1.00
  H0024235             CONDUIT     0.383     0  02:34      1.95    1.57    1.00
  H0024282             CONDUIT     0.000     0  00:00      0.00    0.00    0.12
  H0024308             CONDUIT     2.464     0  02:35      5.84    0.72    0.63
  H0024498             CONDUIT     0.165     0  02:35      2.33    2.55    1.00
  H0026990             CONDUIT     0.116     0  02:34      0.92    0.88    1.00
  H0041650             CONDUIT     0.700     0  02:37      1.13    0.82    1.00
  H0041011             CONDUIT     0.116     0  02:32      1.64    1.15    1.00
  H0045103             CONDUIT     0.581     0  02:37      0.98    0.73    1.00
  H0045104             CONDUIT     2.457     0  02:35      4.82    0.87    0.75
  H0045105             CONDUIT     0.031     0  02:35      0.45    0.55    1.00
  H0045106             CONDUIT     0.483     0  02:34      2.46    0.65    1.00
  H0045107             CONDUIT     0.072     0  02:36      1.01    1.18    1.00
  H0045108             CONDUIT     0.088     0  02:38      1.24    1.58    1.00
  
  
  ***************************
  Flow Classification Summary
  ***************************
  
  -------------------------------------------------------------------------------------
                      Adjusted    ---------- Fraction of Time in Flow Class ---------- 
                       /Actual         Up    Down  Sub   Sup   Up    Down  Norm  Inlet 
  Conduit               Length    Dry  Dry   Dry   Crit  Crit  Crit  Crit  Ltd   Ctrl  
  -------------------------------------------------------------------------------------
  H0014431                1.00   0.03  0.92  0.00  0.05  0.00  0.00  0.00  0.96  0.00
  H0014433                1.00   0.03  0.00  0.00  0.97  0.00  0.00  0.00  0.97  0.00
  H0014352                1.00   0.03  0.00  0.00  0.94  0.03  0.00  0.00  0.97  0.00
  H0014373                1.00   0.03  0.00  0.00  0.92  0.05  0.00  0.00  0.91  0.00
  H0017981                1.00   0.03  0.00  0.00  0.00  0.00  0.00  0.97  0.00  0.00
  H0017755                1.00   0.03  0.00  0.00  0.00  0.00  0.00  0.97  0.00  0.00
  H0017791                1.00   0.03  0.00  0.00  0.97  0.00  0.00  0.00  0.97  0.00
  H0017357                1.00   0.03  0.97  0.00  0.00  0.00  0.00  0.00  0.96  0.00
  H0018216                1.00   0.03  0.92  0.00  0.05  0.00  0.00  0.00  0.97  0.00
  H0016792                1.00   0.03  0.91  0.00  0.06  0.00  0.00  0.00  0.97  0.00
  H0019507                1.00   0.03  0.00  0.00  0.97  0.00  0.00  0.00  0.97  0.00
  H0019998                1.00   0.03  0.00  0.00  0.93  0.05  0.00  0.00  0.06  0.00
  H0019576                1.00   0.03  0.00  0.00  0.95  0.02  0.00  0.00  0.06  0.00
  H0020087                1.00   0.03  0.95  0.00  0.02  0.00  0.00  0.00  0.96  0.00
  H0020211                1.00   0.03  0.00  0.00  0.97  0.00  0.00  0.00  0.91  0.00
  H0018982                1.00   0.03  0.00  0.00  0.97  0.00  0.00  0.00  0.93  0.00
  H0018753                1.00   0.03  0.00  0.00  0.97  0.00  0.00  0.00  0.97  0.00
  H0018845                1.00   1.00  0.00  0.00  0.00  0.00  0.00  0.00  0.00  0.00
  H0018863                1.00   0.03  0.00  0.00  0.97  0.00  0.00  0.00  0.96  0.00
  H0019156                1.00   1.00  0.00  0.00  0.00  0.00  0.00  0.00  0.00  0.00
  H0018929                1.00   0.03  0.92  0.00  0.06  0.00  0.00  0.00  0.97  0.00
  H0018440                1.00   0.03  0.00  0.00  0.97  0.00  0.00  0.00  0.96  0.00
  H0018456                1.00   0.03  0.00  0.00  0.97  0.00  0.00  0.00  0.96  0.00
  H0018968                1.00   0.03  0.91  0.00  0.01  0.05  0.00  0.00  0.93  0.00
  H0022036                1.00   0.03  0.00  0.00  0.02  0.00  0.00  0.95  0.02  0.00
  H0021806                1.00   0.03  0.92  0.00  0.05  0.00  0.00  0.00  0.95  0.00
  H0022111                1.00   0.03  0.00  0.00  0.97  0.00  0.00  0.00  0.00  0.00
  H0021440                1.00   0.03  0.00  0.00  0.94  0.03  0.00  0.00  0.02  0.00
  H0021704                1.00   0.03  0.00  0.00  0.00  0.00  0.00  0.97  0.00  0.00
  H0020521                1.00   0.03  0.00  0.00  0.97  0.00  0.00  0.00  0.97  0.00
  H0020755                1.00   0.03  0.92  0.00  0.05  0.00  0.00  0.00  0.97  0.00
  H0020530                1.00   0.03  0.00  0.00  0.94  0.03  0.00  0.00  0.01  0.00
  H0020618                1.00   0.03  0.00  0.00  0.93  0.04  0.00  0.00  0.93  0.00
  H0021163                1.00   0.03  0.00  0.00  0.96  0.01  0.00  0.00  0.93  0.00
  H0020497                1.20   0.03  0.97  0.00  0.00  0.00  0.00  0.00  0.97  0.00
  H0024325                1.00   0.03  0.00  0.00  0.94  0.03  0.00  0.00  0.93  0.00
  H0023585                1.00   0.03  0.00  0.00  0.00  0.00  0.00  0.97  0.00  0.00
  H0024098                1.00   0.03  0.92  0.00  0.05  0.00  0.00  0.00  0.96  0.00
  H0024235                1.00   0.03  0.00  0.00  0.00  0.00  0.00  0.97  0.00  0.00
  H0024282                1.00   1.00  0.00  0.00  0.00  0.00  0.00  0.00  0.00  0.00
  H0024308                1.00   0.03  0.00  0.00  0.91  0.06  0.00  0.00  0.01  0.00
  H0024498                1.00   0.03  0.00  0.00  0.00  0.00  0.00  0.97  0.00  0.00
  H0026990                1.00   0.03  0.00  0.00  0.97  0.00  0.00  0.00  0.97  0.00
  H0041650                1.00   0.94  0.01  0.00  0.05  0.00  0.00  0.00  0.96  0.00
  H0041011                1.00   0.03  0.00  0.00  0.97  0.00  0.00  0.00  0.96  0.00
  H0045103                1.00   0.03  0.00  0.00  0.97  0.00  0.00  0.00  0.94  0.00
  H0045104                1.00   0.03  0.00  0.00  0.92  0.05  0.00  0.00  0.06  0.00
  H0045105                1.00   0.03  0.00  0.00  0.97  0.00  0.00  0.00  0.97  0.00
  H0045106                1.00   0.03  0.92  0.00  0.02  0.03  0.00  0.00  0.97  0.00
  H0045107                1.00   0.03  0.00  0.00  0.97  0.00  0.00  0.00  0.97  0.00
  H0045108                1.00   0.03  0.00  0.00  0.97  0.00  0.00  0.00  0.97  0.00
  
  
  *************************
  Conduit Surcharge Summary
  *************************
  
  ----------------------------------------------------------------------------
                                                           Hours        Hours 
                         --------- Hours Full --------   Above Full   Capacity
  Conduit                Both Ends  Upstream  Dnstream   Normal Flow   Limited
  ----------------------------------------------------------------------------
  H0014431                    0.22      0.22      0.22      0.23         0.20
  H0014433                    0.15      0.15      0.19      0.06         0.06
  H0014352                    0.09      0.09      0.12      0.01         0.01
  H0014373                    0.01      0.01      0.01      0.07         0.01
  H0017981                    0.12      0.14      0.12      0.30         0.14
  H0017755                    0.12      0.14      0.12      0.17         0.13
  H0017791                    0.01      0.01      0.01      0.01         0.01
  H0017357                    0.09      0.09      0.16      0.10         0.01
  H0018216                    0.14      0.17      0.14      0.19         0.16
  H0016792                    0.06      0.06      0.09      0.01         0.01
  H0019507                    0.16      0.16      0.23      0.04         0.03
  H0019998                    0.04      0.04      0.09      0.01         0.01
  H0019576                    0.03      0.03      0.04      0.03         0.01
  H0020087                    0.06      0.06      0.07      0.01         0.01
  H0020211                    0.03      0.09      0.03      0.23         0.06
  H0018982                    0.01      0.01      0.01      0.01         0.01
  H0018753                    0.16      0.16      0.22      0.02         0.01
  H0018863                    0.23      0.23      0.24      0.14         0.14
  H0018929                    0.01      0.01      0.03      0.01         0.01
  H0018440                    0.19      0.25      0.19      0.32         0.23
  H0018456                    0.11      0.11      0.11      0.13         0.11
  H0021806                    0.14      0.16      0.14      0.18         0.15
  H0022111                    0.07      0.07      0.07      0.04         0.03
  H0021440                    0.02      0.02      0.06      0.01         0.01
  H0021704                    0.02      0.03      0.02      0.13         0.02
  H0020521                    0.14      0.14      0.17      0.09         0.08
  H0020755                    0.11      0.11      0.11      0.06         0.06
  H0020530                    0.01      0.12      0.01      0.16         0.11
  H0020618                    0.04      0.04      0.04      0.07         0.03
  H0021163                    0.19      0.19      0.20      0.19         0.17
  H0020497                    0.01      0.01     73.43      0.01         0.01
  H0024325                    0.07      0.07      0.10      0.01         0.01
  H0023585                    0.10      0.12      0.10      0.12         0.10
  H0024098                    0.24      0.24      0.31      0.19         0.19
  H0024235                    0.08      0.09      0.08      0.08         0.07
  H0024498                    0.10      0.22      0.10      0.27         0.18
  H0026990                    0.08      0.08      0.11      0.01         0.01
  H0041650                    0.01      0.01      0.01      0.01         0.01
  H0041011                    0.20      0.20      0.24      0.04         0.03
  H0045103                    0.01      0.01      0.01      0.01         0.01
  H0045105                    0.08      0.08      0.09      0.01         0.01
  H0045106                    0.10      0.10      0.12      0.01         0.01
  H0045107                    0.18      0.18      0.22      0.09         0.09
  H0045108                    0.22      0.22      0.25      0.17         0.17
  

  Analysis begun on:  Fri Mar 22 15:57:04 2024
  Analysis ended on:  Fri Mar 22 15:57:11 2024
  Total elapsed time: 00:00:07