
  EPA STORM WATER MANAGEMENT MODEL - VERSION 5.2 (Build 5.2.4)
  PYSWMM TOOLKIT API - VERSION v1.0 (2023-11-27)
  ------------------------------------------------------------

  Gievenbeck_2021-07-16 12 50 00_hN3 69 
  
  ****************
  Analysis Options
  ****************
  Flow Units ............... CMS
  Process Models:
    Rainfall/Runoff ........ YES
    RDII ................... NO
    Snowmelt ............... NO
    Groundwater ............ NO
    Flow Routing ........... YES
    Ponding Allowed ........ NO
    Water Quality .......... NO
  Infiltration Method ...... HORTON
  Flow Routing Method ...... DYNWAVE
  Surcharge Method ......... SLOT
  Starting Date ............ 01/01/2024 00:00:00
  Ending Date .............. 01/04/2024 04:00:00
  Antecedent Dry Days ...... 14.0
  Report Time Step ......... 00:01:00
  Wet Time Step ............ 00:01:00
  Dry Time Step ............ 00:01:00
  Routing Time Step ........ 1.00 sec
  Variable Time Step ....... YES
  Maximum Trials ........... 8
  Number of Threads ........ 1
  Head Tolerance ........... 0.001500 m
  
  
  **************************        Volume         Depth
  Runoff Quantity Continuity     hectare-m            mm
  **************************     ---------       -------
  Total Precipitation ......         0.037         3.690
  Evaporation Loss .........         0.010         0.956
  Infiltration Loss ........         0.020         1.969
  Surface Runoff ...........         0.008         0.770
  Final Storage ............         0.000         0.000
  Continuity Error (%) .....        -0.148
  
  
  **************************        Volume        Volume
  Flow Routing Continuity        hectare-m      10^6 ltr
  **************************     ---------     ---------
  Dry Weather Inflow .......         0.000         0.000
  Wet Weather Inflow .......         0.008         0.078
  Groundwater Inflow .......         0.000         0.000
  RDII Inflow ..............         0.000         0.000
  External Inflow ..........         0.000         0.000
  External Outflow .........         0.008         0.078
  Flooding Loss ............         0.000         0.000
  Evaporation Loss .........         0.000         0.000
  Exfiltration Loss ........         0.000         0.000
  Initial Stored Volume ....         0.000         0.000
  Final Stored Volume ......         0.000         0.000
  Continuity Error (%) .....         0.000
  
  
  ***************************
  Time-Step Critical Elements
  ***************************
  None
  
  
  ********************************
  Highest Flow Instability Indexes
  ********************************
  All links are stable.
  
  
  *********************************
  Most Frequent Nonconverging Nodes
  *********************************
  Convergence obtained at all time steps.
  
  
  *************************
  Routing Time Step Summary
  *************************
  Minimum Time Step           :     0.50 sec
  Average Time Step           :     1.00 sec
  Maximum Time Step           :     1.00 sec
  % of Time in Steady State   :     0.00
  Average Iterations per Step :     2.00
  % of Steps Not Converging   :     0.00
  Time Step Frequencies       :
      1.000 -  0.871 sec      :   100.00 %
      0.871 -  0.758 sec      :     0.00 %
      0.758 -  0.660 sec      :     0.00 %
      0.660 -  0.574 sec      :     0.00 %
      0.574 -  0.500 sec      :     0.00 %
  
  
  ***************************
  Subcatchment Runoff Summary
  ***************************
  
  ------------------------------------------------------------------------------------------------------------------------------
                            Total      Total      Total      Total     Imperv       Perv      Total       Total     Peak  Runoff
                           Precip      Runon       Evap      Infil     Runoff     Runoff     Runoff      Runoff   Runoff   Coeff
  Subcatchment                 mm         mm         mm         mm         mm         mm         mm    10^6 ltr      CMS
  ------------------------------------------------------------------------------------------------------------------------------
  EZG_368                    3.69       0.00       0.95       1.98       0.90       0.00       0.76        0.00     0.00   0.207
  EZG_392                    3.69       0.00       0.95       1.98       0.90       0.00       0.77        0.00     0.00   0.208
  EZG_352                    3.69       0.00       0.96       1.98       0.89       0.00       0.76        0.00     0.01   0.206
  EZG_372                    3.69       0.00       0.94       1.98       0.92       0.00       0.78        0.00     0.00   0.211
  EZG_416                    3.69       0.00       0.95       1.98       0.91       0.00       0.77        0.00     0.00   0.209
  EZG_388                    3.69       0.00       0.95       1.98       0.90       0.00       0.76        0.00     0.00   0.207
  EZG_394                    3.69       0.00       0.94       1.98       0.91       0.00       0.77        0.00     0.00   0.209
  EZG_400                    3.69       0.00       0.94       1.98       0.91       0.00       0.77        0.00     0.00   0.209
  EZG_390                    3.69       0.00       0.95       1.98       0.90       0.00       0.77        0.00     0.00   0.208
  EZG_350                    3.69       0.00       0.95       1.98       0.90       0.00       0.76        0.00     0.00   0.207
  EZG_370                    3.69       0.00       0.95       1.98       0.90       0.00       0.77        0.00     0.00   0.208
  EZG_398                    3.69       0.00       0.93       1.98       0.92       0.00       0.78        0.00     0.00   0.212
  EZG_382                    3.69       0.00       0.93       1.98       0.92       0.00       0.78        0.00     0.00   0.213
  EZG_374                    3.69       0.00       1.15       1.64       1.07       0.00       0.91        0.00     0.00   0.247
  EZG_412                    3.69       0.00       0.93       1.99       0.93       0.00       0.79        0.00     0.00   0.215
  EZG_344                    3.69       0.00       0.94       1.98       0.91       0.00       0.77        0.00     0.00   0.209
  EZG_376                    3.69       0.00       0.94       1.98       0.91       0.00       0.77        0.00     0.00   0.210
  EZG_356                    3.69       0.00       0.96       1.98       0.89       0.00       0.76        0.00     0.01   0.205
  EZG_386                    3.69       0.00       0.96       1.98       0.89       0.00       0.75        0.01     0.01   0.205
  EZG_380                    3.69       0.00       0.95       1.98       0.90       0.00       0.77        0.00     0.00   0.208
  EZG_378                    3.69       0.00       0.95       1.98       0.90       0.00       0.77        0.00     0.00   0.208
  EZG_414                    3.69       0.00       0.93       1.98       0.92       0.00       0.78        0.00     0.00   0.213
  EZG_402                    3.69       0.00       0.95       1.98       0.90       0.00       0.77        0.00     0.00   0.208
  EZG_358                    3.69       0.00       0.96       1.98       0.89       0.00       0.76        0.00     0.01   0.206
  EZG_364                    3.69       0.00       0.96       1.98       0.89       0.00       0.76        0.00     0.01   0.206
  EZG_410                    3.69       0.00       0.94       1.98       0.91       0.00       0.77        0.00     0.00   0.210
  EZG_366                    3.69       0.00       0.94       1.98       0.91       0.00       0.77        0.00     0.00   0.209
  EZG_18259                  3.69       0.00       0.94       1.98       0.91       0.00       0.77        0.00     0.00   0.209
  EZG_18258                  3.69       0.00       0.93       1.98       0.93       0.00       0.79        0.00     0.00   0.214
  EZG_346                    3.69       0.00       0.93       2.01       0.88       0.00       0.75        0.00     0.00   0.204
  EZG_348                    3.69       0.00       0.92       2.02       0.89       0.00       0.76        0.00     0.00   0.206
  
  
  ******************
  Node Depth Summary
  ******************
  
  ---------------------------------------------------------------------------------
                                 Average  Maximum  Maximum  Time of Max    Reported
                                   Depth    Depth      HGL   Occurrence   Max Depth
  Node                 Type       Meters   Meters   Meters  days hr:min      Meters
  ---------------------------------------------------------------------------------
  R0019466             JUNCTION     0.00     0.08    69.53     0  02:15        0.08
  R0019468             JUNCTION     0.00     0.08    69.39     0  02:15        0.08
  R0019831             JUNCTION     0.00     0.04    69.21     0  02:15        0.04
  R0019825             JUNCTION     0.00     0.07    68.91     0  02:15        0.07
  R0019843             JUNCTION     0.00     0.11    67.74     0  02:19        0.11
  R0019368             JUNCTION     0.00     0.15    66.94     0  02:19        0.15
  R0019369             JUNCTION     0.00     0.12    66.71     0  02:19        0.12
  R0019370             JUNCTION     0.00     0.10    66.00     0  02:20        0.10
  R0019345             JUNCTION     0.00     0.08    69.98     0  02:16        0.08
  R0019346             JUNCTION     0.00     0.07    69.87     0  02:16        0.07
  R0043600             JUNCTION     0.00     0.08    69.75     0  02:17        0.08
  R0019203             JUNCTION     0.00     0.09    69.63     0  02:17        0.09
  R0043594             JUNCTION     0.00     0.07    69.80     0  02:15        0.07
  R0021458             JUNCTION     0.00     0.09    69.74     0  02:15        0.09
  R0019202             JUNCTION     0.00     0.08    69.66     0  02:17        0.08
  R0019373             JUNCTION     0.00     0.05    69.72     0  02:15        0.05
  R0019254             JUNCTION     0.00     0.07    70.11     0  02:15        0.07
  R0019716             JUNCTION     0.00     0.10    69.11     0  02:18        0.10
  R0019946             JUNCTION     0.00     0.17    68.79     0  02:19        0.17
  R0013935             JUNCTION     0.00     0.04    68.87     0  02:15        0.04
  R0019939             JUNCTION     0.00     0.06    68.63     0  02:15        0.06
  R0019944             JUNCTION     0.00     0.09    68.37     0  02:19        0.09
  R0043703             JUNCTION     0.00     0.11    68.71     0  02:19        0.11
  R0019945             JUNCTION     0.00     0.11    68.51     0  02:19        0.11
  R0039621             JUNCTION     0.00     0.00    69.57     0  00:00        0.00
  R0019838             JUNCTION     0.00     0.07    69.53     0  02:15        0.07
  R0039606             JUNCTION     0.00     0.08    69.67     0  02:17        0.08
  R0019204             JUNCTION     0.00     0.00    69.91     0  00:00        0.00
  R0019205             JUNCTION     0.00     0.00    69.62     0  00:00        0.00
  R0019849             JUNCTION     0.00     0.07    68.59     0  02:15        0.07
  R0019371             JUNCTION     0.00     0.00    70.41     0  00:00        0.00
  R0019718             JUNCTION     0.00     0.14    69.56     0  02:18        0.14
  R0021442             JUNCTION     0.00     0.09    70.14     0  02:15        0.09
  R0019247             JUNCTION     0.00     0.09    69.97     0  02:16        0.09
  R0019719             JUNCTION     0.00     0.08    69.76     0  02:16        0.08
  R0019767             JUNCTION     0.00     0.11    64.84     0  02:20        0.11
  R0019768             JUNCTION     0.00     0.09    63.86     0  02:20        0.09
  R0021453             JUNCTION     0.00     0.03    69.98     0  02:15        0.03
  R0019839             JUNCTION     0.00     0.07    69.46     0  02:15        0.06
  R0019717             JUNCTION     0.00     0.10    69.44     0  02:18        0.10
  R0019252             JUNCTION     0.00     0.06    70.25     0  02:15        0.06
  R0019721             JUNCTION     0.00     0.06    69.93     0  02:15        0.06
  R0019942             JUNCTION     0.00     0.05    68.70     0  02:15        0.05
  R0019206             JUNCTION     0.00     0.00    69.07     0  00:00        0.00
  R0019840             JUNCTION     0.00     0.06    69.03     0  02:16        0.06
  R0043702             JUNCTION     0.00     0.08    68.78     0  02:16        0.08
  R0019723             JUNCTION     0.00     0.05    70.13     0  02:15        0.05
  R0019724             JUNCTION     0.00     0.03    70.19     0  02:11        0.03
  R0021433             JUNCTION     0.00     0.05    70.44     0  02:15        0.05
  R0021435             JUNCTION     0.00     0.07    70.25     0  02:15        0.07
  R0019769             OUTFALL      0.00     0.09    63.47     0  02:20        0.09
  
  
  *******************
  Node Inflow Summary
  *******************
  
  -------------------------------------------------------------------------------------------------
                                  Maximum  Maximum                  Lateral       Total        Flow
                                  Lateral    Total  Time of Max      Inflow      Inflow     Balance
                                   Inflow   Inflow   Occurrence      Volume      Volume       Error
  Node                 Type           CMS      CMS  days hr:min    10^6 ltr    10^6 ltr     Percent
  -------------------------------------------------------------------------------------------------
  R0019466             JUNCTION     0.005    0.008     0  02:15     0.00316     0.00592      -0.146
  R0019468             JUNCTION     0.003    0.011     0  02:15     0.00185     0.00777       0.168
  R0019831             JUNCTION     0.004    0.004     0  02:15     0.00249     0.00249      -0.489
  R0019825             JUNCTION     0.004    0.007     0  02:15      0.0025       0.005      -0.048
  R0019843             JUNCTION     0.000    0.074     0  02:18           0       0.078      -0.064
  R0019368             JUNCTION     0.000    0.074     0  02:19           0       0.078      -0.001
  R0019369             JUNCTION     0.000    0.074     0  02:19           0       0.078       0.019
  R0019370             JUNCTION     0.000    0.074     0  02:19           0       0.078       0.007
  R0019345             JUNCTION     0.000    0.007     0  02:15           0      0.0049       0.603
  R0019346             JUNCTION     0.001    0.011     0  02:15    0.000317      0.0082       0.162
  R0043600             JUNCTION     0.000    0.012     0  02:16           0     0.00948       0.592
  R0019203             JUNCTION     0.001    0.026     0  02:17    0.000694      0.0211      -0.118
  R0043594             JUNCTION     0.006    0.009     0  02:15     0.00449     0.00641      -0.906
  R0021458             JUNCTION     0.005    0.013     0  02:15      0.0035     0.00997      -0.082
  R0019202             JUNCTION     0.002    0.013     0  02:16     0.00105       0.011      -0.085
  R0019373             JUNCTION     0.004    0.004     0  02:15     0.00275     0.00275      -0.232
  R0019254             JUNCTION     0.003    0.007     0  02:15     0.00224     0.00489      -0.342
  R0019716             JUNCTION     0.005    0.045     0  02:18     0.00348      0.0434      -0.179
  R0019946             JUNCTION     0.000    0.044     0  02:18           0      0.0435       0.249
  R0013935             JUNCTION     0.003    0.003     0  02:15     0.00214     0.00214      -0.512
  R0019939             JUNCTION     0.001    0.004     0  02:15    0.000775     0.00292      -0.098
  R0019944             JUNCTION     0.003    0.053     0  02:19     0.00199      0.0557      -0.008
  R0043703             JUNCTION     0.004    0.045     0  02:19     0.00243      0.0458      -0.055
  R0019945             JUNCTION     0.000    0.052     0  02:19           0      0.0537       0.028
  R0039621             JUNCTION     0.000    0.000     0  00:00           0           0       0.000 ltr
  R0019838             JUNCTION     0.006    0.006     0  02:15     0.00486     0.00486      -0.010
  R0039606             JUNCTION     0.000    0.012     0  02:16           0        0.01       0.575
  R0019204             JUNCTION     0.000    0.000     0  00:00           0           0       0.000 ltr
  R0019205             JUNCTION     0.000    0.000     0  00:00           0           0       0.000 ltr
  R0019849             JUNCTION     0.000    0.011     0  02:15           0     0.00791       0.072
  R0019371             JUNCTION     0.000    0.000     0  00:00           0           0       0.000 ltr
  R0019718             JUNCTION     0.004    0.028     0  02:17     0.00298      0.0241       0.112
  R0021442             JUNCTION     0.005    0.011     0  02:15     0.00346     0.00789      -0.136
  R0019247             JUNCTION     0.002    0.013     0  02:15     0.00154     0.00944      -0.440
  R0019719             JUNCTION     0.003    0.013     0  02:15     0.00163     0.00982      -0.029
  R0019767             JUNCTION     0.000    0.074     0  02:20           0       0.078       0.008
  R0019768             JUNCTION     0.000    0.073     0  02:20           0       0.078       0.033
  R0021453             JUNCTION     0.003    0.003     0  02:15     0.00195     0.00195       1.560
  R0019839             JUNCTION     0.006    0.012     0  02:15      0.0048     0.00966      -0.177
  R0019717             JUNCTION     0.008    0.042     0  02:18     0.00603      0.0399      -0.007
  R0019252             JUNCTION     0.004    0.004     0  02:15     0.00263     0.00263      -0.492
  R0019721             JUNCTION     0.001    0.005     0  02:15    0.000683     0.00302       0.120
  R0019942             JUNCTION     0.000    0.007     0  02:15           0       0.005       0.268
  R0019206             JUNCTION     0.000    0.000     0  00:00           0           0       0.000 ltr
  R0019840             JUNCTION     0.000    0.022     0  02:15           0      0.0174       0.102
  R0043702             JUNCTION     0.006    0.028     0  02:15     0.00481      0.0222      -0.016
  R0019723             JUNCTION     0.003    0.004     0  02:15     0.00184     0.00232      -0.579
  R0019724             JUNCTION     0.001    0.001     0  02:10    0.000483    0.000483      -0.587
  R0021433             JUNCTION     0.004    0.004     0  02:15     0.00274     0.00274      -0.504
  R0021435             JUNCTION     0.003    0.007     0  02:15     0.00169     0.00444       0.230
  R0019769             OUTFALL      0.000    0.073     0  02:20           0       0.078       0.000
  
  
  **********************
  Node Surcharge Summary
  **********************
  
  No nodes were surcharged.
  
  
  *********************
  Node Flooding Summary
  *********************
  
  No nodes were flooded.
  
  
  ***********************
  Outfall Loading Summary
  ***********************
  
  -----------------------------------------------------------
                         Flow       Avg       Max       Total
                         Freq      Flow      Flow      Volume
  Outfall Node           Pcnt       CMS       CMS    10^6 ltr
  -----------------------------------------------------------
  R0019769               3.59     0.008     0.073       0.078
  -----------------------------------------------------------
  System                 3.59     0.008     0.073       0.078
  
  
  ********************
  Link Flow Summary
  ********************
  
  -----------------------------------------------------------------------------
                                 Maximum  Time of Max   Maximum    Max/    Max/
                                  |Flow|   Occurrence   |Veloc|    Full    Full
  Link                 Type          CMS  days hr:min     m/sec    Flow   Depth
  -----------------------------------------------------------------------------
  H0014431             CONDUIT     0.008     0  02:15      0.55    0.15    0.27
  H0014433             CONDUIT     0.004     0  02:15      0.45    0.05    0.19
  H0014352             CONDUIT     0.074     0  02:19      1.30    0.03    0.15
  H0014373             CONDUIT     0.074     0  02:19      1.71    0.03    0.12
  H0017981             CONDUIT     0.007     0  02:16      0.51    0.19    0.24
  H0017755             CONDUIT     0.012     0  02:17      0.68    0.10    0.20
  H0017791             CONDUIT     0.008     0  02:15      0.33    0.01    0.09
  H0017357             CONDUIT     0.000     0  00:00      0.00    0.00    0.08
  H0018216             CONDUIT     0.007     0  02:15      0.52    0.12    0.26
  H0016792             CONDUIT     0.044     0  02:18      0.76    0.03    0.15
  H0019507             CONDUIT     0.003     0  02:15      0.44    0.04    0.18
  H0019998             CONDUIT     0.053     0  02:19      1.40    0.02    0.11
  H0019576             CONDUIT     0.045     0  02:19      1.03    0.03    0.12
  H0020087             CONDUIT     0.000     0  00:00      0.00    0.00    0.07
  H0020211             CONDUIT     0.044     0  02:19      0.70    0.11    0.16
  H0018982             CONDUIT     0.012     0  02:16      0.41    0.02    0.09
  H0018753             CONDUIT     0.004     0  02:15      0.36    0.06    0.21
  H0018845             CONDUIT     0.000     0  00:00      0.00    0.00    0.00
  H0018863             CONDUIT     0.004     0  02:15      0.42    0.10    0.23
  H0019156             CONDUIT     0.000     0  00:00      0.00    0.00    0.00
  H0018929             CONDUIT     0.025     0  02:17      0.57    0.02    0.13
  H0018440             CONDUIT     0.011     0  02:15      0.60    0.19    0.30
  H0018456             CONDUIT     0.011     0  02:16      0.71    0.07    0.19
  H0018968             CONDUIT     0.073     0  02:20      1.93    0.03    0.11
  H0022036             CONDUIT     0.003     0  02:15      0.45    0.00    0.04
  H0021806             CONDUIT     0.012     0  02:16      0.62    0.11    0.22
  H0022111             CONDUIT     0.006     0  02:15      0.36    0.04    0.14
  H0021440             CONDUIT     0.042     0  02:18      1.08    0.03    0.11
  H0021704             CONDUIT     0.026     0  02:19      0.57    0.05    0.13
  H0020521             CONDUIT     0.004     0  02:15      0.36    0.08    0.21
  H0020755             CONDUIT     0.005     0  02:15      0.36    0.05    0.16
  H0020530             CONDUIT     0.074     0  02:19      1.23    0.06    0.15
  H0020618             CONDUIT     0.052     0  02:19      1.33    0.03    0.11
  H0021163             CONDUIT     0.007     0  02:15      0.67    0.12    0.21
  H0020497             CONDUIT     0.000     0  00:00      0.00    0.00    0.18
  H0024325             CONDUIT     0.012     0  02:15      0.84    0.04    0.12
  H0023585             CONDUIT     0.027     0  02:16      1.24    0.06    0.17
  H0024098             CONDUIT     0.011     0  02:15      0.81    0.13    0.29
  H0024235             CONDUIT     0.013     0  02:16      0.68    0.05    0.15
  H0024282             CONDUIT     0.000     0  00:00      0.00    0.00    0.00
  H0024308             CONDUIT     0.073     0  02:20      2.18    0.02    0.10
  H0024498             CONDUIT     0.010     0  02:16      0.69    0.16    0.26
  H0026990             CONDUIT     0.004     0  02:15      0.43    0.03    0.13
  H0041650             CONDUIT     0.013     0  02:17      0.43    0.02    0.09
  H0041011             CONDUIT     0.007     0  02:15      0.64    0.07    0.21
  H0045103             CONDUIT     0.012     0  02:17      0.46    0.02    0.09
  H0045104             CONDUIT     0.074     0  02:20      1.82    0.03    0.11
  H0045105             CONDUIT     0.001     0  02:11      0.25    0.02    0.12
  H0045106             CONDUIT     0.022     0  02:16      1.27    0.03    0.14
  H0045107             CONDUIT     0.004     0  02:15      0.44    0.06    0.20
  H0045108             CONDUIT     0.006     0  02:15      0.43    0.11    0.26
  
  
  ***************************
  Flow Classification Summary
  ***************************
  
  -------------------------------------------------------------------------------------
                      Adjusted    ---------- Fraction of Time in Flow Class ---------- 
                       /Actual         Up    Down  Sub   Sup   Up    Down  Norm  Inlet 
  Conduit               Length    Dry  Dry   Dry   Crit  Crit  Crit  Crit  Ltd   Ctrl  
  -------------------------------------------------------------------------------------
  H0014431                1.00   0.03  0.94  0.00  0.04  0.00  0.00  0.00  0.97  0.00
  H0014433                1.00   0.03  0.00  0.00  0.97  0.00  0.00  0.00  0.97  0.00
  H0014352                1.00   0.03  0.00  0.00  0.96  0.01  0.00  0.00  0.97  0.00
  H0014373                1.00   0.03  0.00  0.00  0.94  0.03  0.00  0.00  0.93  0.00
  H0017981                1.00   0.03  0.00  0.00  0.00  0.00  0.00  0.97  0.00  0.00
  H0017755                1.00   0.03  0.00  0.00  0.00  0.00  0.00  0.97  0.00  0.00
  H0017791                1.00   0.03  0.00  0.00  0.97  0.00  0.00  0.00  0.97  0.00
  H0017357                1.00   0.03  0.97  0.00  0.00  0.00  0.00  0.00  0.00  0.00
  H0018216                1.00   0.03  0.94  0.00  0.04  0.00  0.00  0.00  0.97  0.00
  H0016792                1.00   0.03  0.93  0.00  0.04  0.00  0.00  0.00  0.97  0.00
  H0019507                1.00   0.03  0.00  0.00  0.97  0.00  0.00  0.00  0.97  0.00
  H0019998                1.00   0.03  0.00  0.00  0.94  0.03  0.00  0.00  0.04  0.00
  H0019576                1.00   0.03  0.00  0.00  0.96  0.01  0.00  0.00  0.04  0.00
  H0020087                1.00   0.03  0.97  0.00  0.00  0.00  0.00  0.00  0.00  0.00
  H0020211                1.00   0.03  0.00  0.00  0.97  0.00  0.00  0.00  0.92  0.00
  H0018982                1.00   0.03  0.00  0.00  0.97  0.00  0.00  0.00  0.95  0.00
  H0018753                1.00   0.03  0.00  0.00  0.97  0.00  0.00  0.00  0.97  0.00
  H0018845                1.00   1.00  0.00  0.00  0.00  0.00  0.00  0.00  0.00  0.00
  H0018863                1.00   0.03  0.00  0.00  0.97  0.00  0.00  0.00  0.97  0.00
  H0019156                1.00   1.00  0.00  0.00  0.00  0.00  0.00  0.00  0.00  0.00
  H0018929                1.00   0.03  0.93  0.00  0.04  0.00  0.00  0.00  0.97  0.00
  H0018440                1.00   0.03  0.00  0.00  0.97  0.00  0.00  0.00  0.97  0.00
  H0018456                1.00   0.03  0.00  0.00  0.97  0.00  0.00  0.00  0.97  0.00
  H0018968                1.00   0.03  0.92  0.00  0.01  0.03  0.00  0.00  0.94  0.00
  H0022036                1.00   0.03  0.00  0.00  0.00  0.00  0.00  0.97  0.00  0.00
  H0021806                1.00   0.03  0.93  0.00  0.04  0.00  0.00  0.00  0.97  0.00
  H0022111                1.00   0.03  0.00  0.00  0.97  0.00  0.00  0.00  0.00  0.00
  H0021440                1.00   0.03  0.00  0.00  0.96  0.01  0.00  0.00  0.01  0.00
  H0021704                1.00   0.03  0.00  0.00  0.00  0.00  0.00  0.97  0.00  0.00
  H0020521                1.00   0.03  0.00  0.00  0.97  0.00  0.00  0.00  0.97  0.00
  H0020755                1.00   0.03  0.94  0.00  0.03  0.00  0.00  0.00  0.97  0.00
  H0020530                1.00   0.03  0.00  0.00  0.96  0.01  0.00  0.00  0.00  0.00
  H0020618                1.00   0.03  0.00  0.00  0.95  0.02  0.00  0.00  0.93  0.00
  H0021163                1.00   0.03  0.00  0.00  0.97  0.00  0.00  0.00  0.95  0.00
  H0020497                1.20   0.03  0.97  0.00  0.00  0.00  0.00  0.00  0.00  0.00
  H0024325                1.00   0.03  0.00  0.00  0.96  0.01  0.00  0.00  0.95  0.00
  H0023585                1.00   0.03  0.00  0.00  0.00  0.00  0.00  0.97  0.00  0.00
  H0024098                1.00   0.03  0.94  0.00  0.03  0.00  0.00  0.00  0.97  0.00
  H0024235                1.00   0.03  0.00  0.00  0.00  0.00  0.00  0.97  0.00  0.00
  H0024282                1.00   1.00  0.00  0.00  0.00  0.00  0.00  0.00  0.00  0.00
  H0024308                1.00   0.03  0.00  0.00  0.93  0.05  0.00  0.00  0.01  0.00
  H0024498                1.00   0.03  0.00  0.00  0.00  0.00  0.00  0.97  0.00  0.00
  H0026990                1.00   0.03  0.00  0.00  0.97  0.00  0.00  0.00  0.97  0.00
  H0041650                1.00   0.96  0.01  0.00  0.03  0.00  0.00  0.00  0.97  0.00
  H0041011                1.00   0.03  0.00  0.00  0.97  0.00  0.00  0.00  0.97  0.00
  H0045103                1.00   0.03  0.00  0.00  0.97  0.00  0.00  0.00  0.96  0.00
  H0045104                1.00   0.03  0.00  0.00  0.94  0.03  0.00  0.00  0.04  0.00
  H0045105                1.00   0.03  0.00  0.00  0.97  0.00  0.00  0.00  0.97  0.00
  H0045106                1.00   0.03  0.94  0.00  0.02  0.02  0.00  0.00  0.97  0.00
  H0045107                1.00   0.03  0.00  0.00  0.97  0.00  0.00  0.00  0.97  0.00
  H0045108                1.00   0.03  0.00  0.00  0.97  0.00  0.00  0.00  0.97  0.00
  
  
  *************************
  Conduit Surcharge Summary
  *************************
  
  No conduits were surcharged.
  

  Analysis begun on:  Fri Mar 22 15:55:15 2024
  Analysis ended on:  Fri Mar 22 15:55:25 2024
  Total elapsed time: 00:00:10