
  EPA STORM WATER MANAGEMENT MODEL - VERSION 5.2 (Build 5.2.4)
  PYSWMM TOOLKIT API - VERSION v1.0 (2023-11-27)
  ------------------------------------------------------------

  Gievenbeck_e2_T3D60 
  
  ****************
  Analysis Options
  ****************
  Flow Units ............... CMS
  Process Models:
    Rainfall/Runoff ........ YES
    RDII ................... NO
    Snowmelt ............... NO
    Groundwater ............ NO
    Flow Routing ........... YES
    Ponding Allowed ........ NO
    Water Quality .......... NO
  Infiltration Method ...... HORTON
  Flow Routing Method ...... DYNWAVE
  Surcharge Method ......... SLOT
  Starting Date ............ 01/01/2024 00:00:00
  Ending Date .............. 01/04/2024 04:00:00
  Antecedent Dry Days ...... 14.0
  Report Time Step ......... 00:01:00
  Wet Time Step ............ 00:01:00
  Dry Time Step ............ 00:01:00
  Routing Time Step ........ 1.00 sec
  Variable Time Step ....... YES
  Maximum Trials ........... 8
  Number of Threads ........ 1
  Head Tolerance ........... 0.001500 m
  
  
  **************************        Volume         Depth
  Runoff Quantity Continuity     hectare-m            mm
  **************************     ---------       -------
  Total Precipitation ......         0.211        20.800
  Evaporation Loss .........         0.010         0.955
  Infiltration Loss ........         0.116        11.481
  Surface Runoff ...........         0.085         8.393
  Final Storage ............         0.000         0.000
  Continuity Error (%) .....        -0.142
  
  
  **************************        Volume        Volume
  Flow Routing Continuity        hectare-m      10^6 ltr
  **************************     ---------     ---------
  Dry Weather Inflow .......         0.000         0.000
  Wet Weather Inflow .......         0.085         0.850
  Groundwater Inflow .......         0.000         0.000
  RDII Inflow ..............         0.000         0.000
  External Inflow ..........         0.000         0.000
  External Outflow .........         0.085         0.851
  Flooding Loss ............         0.000         0.000
  Evaporation Loss .........         0.000         0.000
  Exfiltration Loss ........         0.000         0.000
  Initial Stored Volume ....         0.000         0.000
  Final Stored Volume ......         0.000         0.000
  Continuity Error (%) .....        -0.144
  
  
  *************************
  Highest Continuity Errors
  *************************
  Node R0019718 (-2.12%)
  Node R0019373 (1.70%)
  
  
  ***************************
  Time-Step Critical Elements
  ***************************
  None
  
  
  ********************************
  Highest Flow Instability Indexes
  ********************************
  All links are stable.
  
  
  *********************************
  Most Frequent Nonconverging Nodes
  *********************************
  Convergence obtained at all time steps.
  
  
  *************************
  Routing Time Step Summary
  *************************
  Minimum Time Step           :     0.50 sec
  Average Time Step           :     1.00 sec
  Maximum Time Step           :     1.00 sec
  % of Time in Steady State   :     0.00
  Average Iterations per Step :     2.00
  % of Steps Not Converging   :     0.00
  Time Step Frequencies       :
      1.000 -  0.871 sec      :   100.00 %
      0.871 -  0.758 sec      :     0.00 %
      0.758 -  0.660 sec      :     0.00 %
      0.660 -  0.574 sec      :     0.00 %
      0.574 -  0.500 sec      :     0.00 %
  
  
  ***************************
  Subcatchment Runoff Summary
  ***************************
  
  ------------------------------------------------------------------------------------------------------------------------------
                            Total      Total      Total      Total     Imperv       Perv      Total       Total     Peak  Runoff
                           Precip      Runon       Evap      Infil     Runoff     Runoff     Runoff      Runoff   Runoff   Coeff
  Subcatchment                 mm         mm         mm         mm         mm         mm         mm    10^6 ltr      CMS
  ------------------------------------------------------------------------------------------------------------------------------
  EZG_368                   20.80       0.00       0.95      11.56       9.47       0.27       8.32        0.03     0.06   0.400
  EZG_392                   20.80       0.00       0.95      11.52       9.48       0.30       8.36        0.03     0.05   0.402
  EZG_352                   20.80       0.00       0.96      11.60       9.47       0.23       8.27        0.05     0.08   0.398
  EZG_372                   20.80       0.00       0.94      11.40       9.50       0.44       8.51        0.01     0.02   0.409
  EZG_416                   20.80       0.00       0.94      11.51       9.48       0.32       8.38        0.02     0.04   0.403
  EZG_388                   20.80       0.00       0.95      11.57       9.47       0.26       8.31        0.04     0.06   0.399
  EZG_394                   20.80       0.00       0.94      11.50       9.48       0.33       8.38        0.02     0.04   0.403
  EZG_400                   20.80       0.00       0.94      11.49       9.48       0.34       8.40        0.02     0.04   0.404
  EZG_390                   20.80       0.00       0.95      11.52       9.48       0.31       8.36        0.03     0.05   0.402
  EZG_350                   20.80       0.00       0.95      11.57       9.47       0.26       8.31        0.04     0.06   0.399
  EZG_370                   20.80       0.00       0.95      11.54       9.48       0.29       8.34        0.03     0.05   0.401
  EZG_398                   20.80       0.00       0.93      11.34       9.50       0.49       8.57        0.01     0.02   0.412
  EZG_382                   20.80       0.00       0.93      11.32       9.50       0.51       8.59        0.01     0.01   0.413
  EZG_374                   20.80       0.00       1.14       9.64      11.36       0.39      10.05        0.04     0.06   0.483
  EZG_412                   20.80       0.00       0.92      11.18       9.52       0.67       8.76        0.00     0.01   0.421
  EZG_344                   20.80       0.00       0.94      11.49       9.48       0.34       8.40        0.02     0.04   0.404
  EZG_376                   20.80       0.00       0.94      11.46       9.49       0.37       8.44        0.02     0.03   0.406
  EZG_356                   20.80       0.00       0.96      11.61       9.46       0.22       8.26        0.05     0.09   0.397
  EZG_386                   20.80       0.00       0.96      11.63       9.46       0.19       8.24        0.07     0.11   0.396
  EZG_380                   20.80       0.00       0.95      11.55       9.48       0.28       8.33        0.03     0.06   0.401
  EZG_378                   20.80       0.00       0.95      11.53       9.48       0.30       8.35        0.03     0.05   0.402
  EZG_414                   20.80       0.00       0.93      11.32       9.50       0.52       8.59        0.01     0.01   0.413
  EZG_402                   20.80       0.00       0.95      11.52       9.48       0.30       8.36        0.03     0.05   0.402
  EZG_358                   20.80       0.00       0.96      11.60       9.46       0.22       8.26        0.05     0.09   0.397
  EZG_364                   20.80       0.00       0.96      11.60       9.46       0.22       8.26        0.05     0.09   0.397
  EZG_410                   20.80       0.00       0.94      11.46       9.49       0.37       8.43        0.02     0.03   0.405
  EZG_366                   20.80       0.00       0.94      11.48       9.48       0.35       8.41        0.02     0.04   0.404
  EZG_18259                 20.80       0.00       0.94      11.48       9.48       0.35       8.41        0.02     0.04   0.404
  EZG_18258                 20.80       0.00       0.93      11.26       9.51       0.58       8.66        0.01     0.01   0.417
  EZG_346                   20.80       0.00       0.93      11.73       9.29       0.28       8.17        0.03     0.05   0.393
  EZG_348                   20.80       0.00       0.92      11.66       9.30       0.35       8.25        0.02     0.03   0.397
  
  
  ******************
  Node Depth Summary
  ******************
  
  ---------------------------------------------------------------------------------
                                 Average  Maximum  Maximum  Time of Max    Reported
                                   Depth    Depth      HGL   Occurrence   Max Depth
  Node                 Type       Meters   Meters   Meters  days hr:min      Meters
  ---------------------------------------------------------------------------------
  R0019466             JUNCTION     0.00     0.61    70.06     0  02:25        0.61
  R0019468             JUNCTION     0.00     0.54    69.85     0  02:25        0.54
  R0019831             JUNCTION     0.00     0.40    69.57     0  02:25        0.33
  R0019825             JUNCTION     0.00     0.65    69.49     0  02:25        0.54
  R0019843             JUNCTION     0.00     0.44    68.07     0  02:25        0.44
  R0019368             JUNCTION     0.00     0.66    67.45     0  02:26        0.65
  R0019369             JUNCTION     0.00     0.48    67.07     0  02:26        0.46
  R0019370             JUNCTION     0.00     0.41    66.31     0  02:26        0.40
  R0019345             JUNCTION     0.00     0.35    70.25     0  02:25        0.34
  R0019346             JUNCTION     0.00     0.29    70.09     0  02:25        0.28
  R0043600             JUNCTION     0.00     0.34    70.01     0  02:25        0.34
  R0019203             JUNCTION     0.00     0.38    69.92     0  02:25        0.38
  R0043594             JUNCTION     0.00     0.26    69.99     0  02:25        0.26
  R0021458             JUNCTION     0.00     0.32    69.97     0  02:25        0.32
  R0019202             JUNCTION     0.00     0.35    69.93     0  02:25        0.35
  R0019373             JUNCTION     0.00     0.39    70.06     0  02:25        0.39
  R0019254             JUNCTION     0.00     0.54    70.58     0  02:25        0.53
  R0019716             JUNCTION     0.00     0.42    69.43     0  02:26        0.42
  R0019946             JUNCTION     0.00     0.58    69.20     0  02:26        0.58
  R0013935             JUNCTION     0.00     0.38    69.21     0  02:25        0.35
  R0019939             JUNCTION     0.00     0.58    69.15     0  02:25        0.52
  R0019944             JUNCTION     0.00     0.36    68.64     0  02:26        0.36
  R0043703             JUNCTION     0.00     0.45    69.05     0  02:26        0.44
  R0019945             JUNCTION     0.00     0.46    68.86     0  02:26        0.45
  R0039621             JUNCTION     0.00     0.16    69.73     0  02:25        0.15
  R0019838             JUNCTION     0.00     0.27    69.73     0  02:25        0.27
  R0039606             JUNCTION     0.00     0.35    69.94     0  02:25        0.34
  R0019204             JUNCTION     0.00     0.00    69.91     0  00:00        0.00
  R0019205             JUNCTION     0.00     0.00    69.62     0  00:00        0.00
  R0019849             JUNCTION     0.00     0.57    69.09     0  02:25        0.54
  R0019371             JUNCTION     0.00     0.00    70.41     0  00:00        0.00
  R0019718             JUNCTION     0.00     0.47    69.89     0  02:25        0.47
  R0021442             JUNCTION     0.00     1.22    71.27     0  02:25        1.17
  R0019247             JUNCTION     0.00     0.53    70.41     0  02:25        0.47
  R0019719             JUNCTION     0.00     0.30    69.98     0  02:25        0.30
  R0019767             JUNCTION     0.00     0.43    65.16     0  02:26        0.42
  R0019768             JUNCTION     0.00     0.37    64.14     0  02:26        0.37
  R0021453             JUNCTION     0.00     0.10    70.05     0  02:25        0.10
  R0019839             JUNCTION     0.00     0.25    69.64     0  02:25        0.24
  R0019717             JUNCTION     0.00     0.41    69.75     0  02:25        0.41
  R0019252             JUNCTION     0.00     0.53    70.72     0  02:25        0.52
  R0019721             JUNCTION     0.00     0.25    70.12     0  02:25        0.25
  R0019942             JUNCTION     0.00     0.52    69.17     0  02:25        0.47
  R0019206             JUNCTION     0.00     0.00    69.07     0  00:00        0.00
  R0019840             JUNCTION     0.00     0.22    69.19     0  02:25        0.22
  R0043702             JUNCTION     0.00     0.33    69.03     0  02:25        0.33
  R0019723             JUNCTION     0.00     0.16    70.24     0  02:25        0.16
  R0019724             JUNCTION     0.00     0.09    70.25     0  02:25        0.09
  R0021433             JUNCTION     0.00     1.20    71.59     0  02:25        1.14
  R0021435             JUNCTION     0.00     1.30    71.48     0  02:25        1.24
  R0019769             OUTFALL      0.00     0.37    63.75     0  02:27        0.37
  
  
  *******************
  Node Inflow Summary
  *******************
  
  -------------------------------------------------------------------------------------------------
                                  Maximum  Maximum                  Lateral       Total        Flow
                                  Lateral    Total  Time of Max      Inflow      Inflow     Balance
                                   Inflow   Inflow   Occurrence      Volume      Volume       Error
  Node                 Type           CMS      CMS  days hr:min    10^6 ltr    10^6 ltr     Percent
  -------------------------------------------------------------------------------------------------
  R0019466             JUNCTION     0.058    0.082     0  02:22      0.0344      0.0593       0.183
  R0019468             JUNCTION     0.035    0.102     0  02:25      0.0201      0.0793      -0.047
  R0019831             JUNCTION     0.047    0.047     0  02:25      0.0271      0.0271       0.125
  R0019825             JUNCTION     0.047    0.087     0  02:24      0.0272      0.0542       0.321
  R0019843             JUNCTION     0.000    1.145     0  02:26           0       0.851      -0.010
  R0019368             JUNCTION     0.000    1.151     0  02:26           0       0.851       0.017
  R0019369             JUNCTION     0.000    1.218     0  02:26           0       0.851      -0.018
  R0019370             JUNCTION     0.000    1.176     0  02:26           0       0.851       0.006
  R0019345             JUNCTION     0.000    0.087     0  02:25           0       0.053      -0.006
  R0019346             JUNCTION     0.007    0.142     0  02:25     0.00349      0.0893       0.033
  R0043600             JUNCTION     0.000    0.154     0  02:25           0       0.103      -0.032
  R0019203             JUNCTION     0.014    0.357     0  02:25     0.00759       0.235      -0.006
  R0043594             JUNCTION     0.081    0.117     0  02:25      0.0489      0.0701      -0.073
  R0021458             JUNCTION     0.064    0.169     0  02:25      0.0381       0.108      -0.020
  R0019202             JUNCTION     0.021    0.196     0  02:25      0.0115       0.124      -0.347
  R0019373             JUNCTION     0.051    0.051     0  02:25      0.0299        0.03       1.724
  R0019254             JUNCTION     0.042    0.088     0  02:25      0.0244      0.0531       0.060
  R0019716             JUNCTION     0.064    0.685     0  02:26      0.0379        0.48      -0.031
  R0019946             JUNCTION     0.000    0.687     0  02:26           0        0.48       0.016
  R0013935             JUNCTION     0.041    0.041     0  02:25      0.0233      0.0233       0.079
  R0019939             JUNCTION     0.016    0.054     0  02:25     0.00848      0.0317      -0.083
  R0019944             JUNCTION     0.038    0.843     0  02:26      0.0216       0.614       0.012
  R0043703             JUNCTION     0.046    0.720     0  02:26      0.0265       0.506       0.018
  R0019945             JUNCTION     0.000    0.825     0  02:26           0       0.592      -0.012
  R0039621             JUNCTION     0.000    0.005     0  02:21           0    0.000947       0.866
  R0019838             JUNCTION     0.087    0.087     0  02:25       0.053      0.0539      -0.017
  R0039606             JUNCTION     0.000    0.151     0  02:25           0       0.108       0.115
  R0019204             JUNCTION     0.000    0.000     0  00:00           0           0       0.000 ltr
  R0019205             JUNCTION     0.000    0.000     0  00:00           0           0       0.000 ltr
  R0019849             JUNCTION     0.000    0.128     0  02:25           0       0.086       0.039
  R0019371             JUNCTION     0.000    0.000     0  00:00           0           0       0.000 ltr
  R0019718             JUNCTION     0.055    0.396     0  02:25      0.0324       0.268      -2.072
  R0021442             JUNCTION     0.063    0.134     0  02:25      0.0381      0.0863       0.074
  R0019247             JUNCTION     0.030    0.159     0  02:25      0.0168       0.103       0.011
  R0019719             JUNCTION     0.031    0.169     0  02:25      0.0177       0.107      -0.021
  R0019767             JUNCTION     0.000    1.177     0  02:26           0       0.851      -0.011
  R0019768             JUNCTION     0.000    1.178     0  02:26           0       0.851       0.018
  R0021453             JUNCTION     0.037    0.037     0  02:25      0.0212      0.0212      -0.080
  R0019839             JUNCTION     0.086    0.165     0  02:25      0.0523       0.105      -0.016
  R0019717             JUNCTION     0.105    0.641     0  02:25      0.0658       0.446       0.969
  R0019252             JUNCTION     0.049    0.049     0  02:25      0.0286      0.0286      -0.126
  R0019721             JUNCTION     0.014    0.057     0  02:25     0.00748      0.0328       0.039
  R0019942             JUNCTION     0.000    0.080     0  02:25           0       0.054      -0.377
  R0019206             JUNCTION     0.000    0.000     0  00:00           0           0       0.000 ltr
  R0019840             JUNCTION     0.000    0.263     0  02:25           0       0.185       0.014
  R0043702             JUNCTION     0.086    0.341     0  02:25      0.0524       0.237      -0.007
  R0019723             JUNCTION     0.035    0.045     0  02:25        0.02      0.0253      -0.125
  R0019724             JUNCTION     0.010    0.010     0  02:25      0.0053      0.0053      -0.124
  R0021433             JUNCTION     0.051    0.051     0  02:25      0.0297      0.0297      -0.340
  R0021435             JUNCTION     0.033    0.077     0  02:25      0.0184      0.0482       0.025
  R0019769             OUTFALL      0.000    1.182     0  02:27           0       0.851       0.000
  
  
  **********************
  Node Surcharge Summary
  **********************
  
  Surcharging occurs when water rises above the top of the highest conduit.
  ---------------------------------------------------------------------
                                               Max. Height   Min. Depth
                                   Hours       Above Crown    Below Rim
  Node                 Type      Surcharged         Meters       Meters
  ---------------------------------------------------------------------
  R0019466             JUNCTION        0.09          0.312        2.198
  R0019468             JUNCTION        0.08          0.242        2.188
  R0019831             JUNCTION        0.02          0.095        1.265
  R0019825             JUNCTION        0.06          0.351        0.849
  R0019345             JUNCTION        0.02          0.048        1.702
  R0019373             JUNCTION        0.03          0.094        2.406
  R0019254             JUNCTION        0.05          0.245        1.585
  R0013935             JUNCTION        0.02          0.083        1.237
  R0019939             JUNCTION        0.09          0.278        1.342
  R0019849             JUNCTION        0.10          0.271        1.659
  R0021442             JUNCTION        0.11          0.921        0.829
  R0019247             JUNCTION        0.03          0.133        1.727
  R0019252             JUNCTION        0.03          0.235        1.405
  R0019942             JUNCTION        0.07          0.223        1.427
  R0021433             JUNCTION        0.07          0.899        0.951
  R0021435             JUNCTION        0.09          1.002        0.808
  
  
  *********************
  Node Flooding Summary
  *********************
  
  No nodes were flooded.
  
  
  ***********************
  Outfall Loading Summary
  ***********************
  
  -----------------------------------------------------------
                         Flow       Avg       Max       Total
                         Freq      Flow      Flow      Volume
  Outfall Node           Pcnt       CMS       CMS    10^6 ltr
  -----------------------------------------------------------
  R0019769               4.56     0.068     1.182       0.851
  -----------------------------------------------------------
  System                 4.56     0.068     1.182       0.851
  
  
  ********************
  Link Flow Summary
  ********************
  
  -----------------------------------------------------------------------------
                                 Maximum  Time of Max   Maximum    Max/    Max/
                                  |Flow|   Occurrence   |Veloc|    Full    Full
  Link                 Type          CMS  days hr:min     m/sec    Flow   Depth
  -----------------------------------------------------------------------------
  H0014431             CONDUIT     0.070     0  02:23      0.99    1.30    1.00
  H0014433             CONDUIT     0.043     0  02:24      0.72    0.55    1.00
  H0014352             CONDUIT     1.151     0  02:26      2.86    0.47    0.61
  H0014373             CONDUIT     1.176     0  02:26      3.81    0.54    0.49
  H0017981             CONDUIT     0.087     0  02:25      1.24    2.46    0.96
  H0017755             CONDUIT     0.153     0  02:25      1.42    1.24    0.81
  H0017791             CONDUIT     0.107     0  02:25      0.62    0.16    0.32
  H0017357             CONDUIT     0.040     0  02:25      0.59    0.64    0.91
  H0018216             CONDUIT     0.087     0  02:25      1.23    1.59    1.00
  H0016792             CONDUIT     0.687     0  02:26      1.90    0.39    0.55
  H0019507             CONDUIT     0.040     0  02:25      0.70    0.55    1.00
  H0019998             CONDUIT     0.843     0  02:26      3.15    0.34    0.44
  H0019576             CONDUIT     0.724     0  02:26      2.27    0.49    0.50
  H0020087             CONDUIT     0.007     0  02:26      0.15    0.03    0.43
  H0020211             CONDUIT     0.697     0  02:26      1.88    1.74    0.57
  H0018982             CONDUIT     0.151     0  02:25      0.80    0.24    0.37
  H0018753             CONDUIT     0.036     0  02:22      0.62    0.51    1.00
  H0018845             CONDUIT     0.000     0  00:00      0.00    0.00    0.00
  H0018863             CONDUIT     0.050     0  02:25      0.71    1.18    1.00
  H0019156             CONDUIT     0.000     0  00:00      0.00    0.00    0.00
  H0018929             CONDUIT     0.357     0  02:25      1.22    0.31    0.47
  H0018440             CONDUIT     0.130     0  02:25      1.83    2.32    1.00
  H0018456             CONDUIT     0.142     0  02:25      1.43    0.86    0.74
  H0018968             CONDUIT     1.178     0  02:26      4.37    0.45    0.44
  H0022036             CONDUIT     0.037     0  02:25      0.50    0.03    0.19
  H0021806             CONDUIT     0.154     0  02:25      1.23    1.37    1.00
  H0022111             CONDUIT     0.080     0  02:25      0.80    0.57    0.51
  H0021440             CONDUIT     0.645     0  02:26      2.28    0.42    0.46
  H0021704             CONDUIT     0.404     0  02:26      1.42    0.77    0.46
  H0020521             CONDUIT     0.047     0  02:25      0.67    0.96    1.00
  H0020755             CONDUIT     0.050     0  02:25      0.60    0.55    0.67
  H0020530             CONDUIT     1.218     0  02:26      2.90    1.04    0.63
  H0020618             CONDUIT     0.825     0  02:26      2.94    0.51    0.45
  H0021163             CONDUIT     0.080     0  02:25      1.15    1.34    1.00
  H0020497             CONDUIT     0.000     0  00:00      0.00    0.00    0.73
  H0024325             CONDUIT     0.162     0  02:25      1.81    0.48    0.47
  H0023585             CONDUIT     0.340     0  02:25      2.46    0.78    0.67
  H0024098             CONDUIT     0.127     0  02:25      1.80    1.49    1.00
  H0024235             CONDUIT     0.166     0  02:25      1.42    0.68    0.58
  H0024282             CONDUIT     0.000     0  00:00      0.00    0.00    0.00
  H0024308             CONDUIT     1.182     0  02:27      4.87    0.35    0.41
  H0024498             CONDUIT     0.102     0  02:25      1.44    1.58    1.00
  H0026990             CONDUIT     0.043     0  02:25      0.72    0.33    0.50
  H0041650             CONDUIT     0.195     0  02:25      0.80    0.23    0.41
  H0041011             CONDUIT     0.080     0  02:25      1.13    0.79    1.00
  H0045103             CONDUIT     0.154     0  02:26      0.74    0.19    0.39
  H0045104             CONDUIT     1.177     0  02:26      4.07    0.42    0.46
  H0045105             CONDUIT     0.010     0  02:25      0.36    0.17    0.41
  H0045106             CONDUIT     0.263     0  02:25      2.36    0.35    0.55
  H0045107             CONDUIT     0.045     0  02:25      0.72    0.74    1.00
  H0045108             CONDUIT     0.073     0  02:25      1.04    1.32    1.00
  
  
  ***************************
  Flow Classification Summary
  ***************************
  
  -------------------------------------------------------------------------------------
                      Adjusted    ---------- Fraction of Time in Flow Class ---------- 
                       /Actual         Up    Down  Sub   Sup   Up    Down  Norm  Inlet 
  Conduit               Length    Dry  Dry   Dry   Crit  Crit  Crit  Crit  Ltd   Ctrl  
  -------------------------------------------------------------------------------------
  H0014431                1.00   0.03  0.00  0.00  0.97  0.00  0.00  0.00  0.97  0.00
  H0014433                1.00   0.03  0.00  0.00  0.97  0.00  0.00  0.00  0.97  0.00
  H0014352                1.00   0.03  0.00  0.00  0.95  0.02  0.00  0.00  0.97  0.00
  H0014373                1.00   0.03  0.00  0.00  0.93  0.04  0.00  0.00  0.92  0.00
  H0017981                1.00   0.03  0.00  0.00  0.00  0.00  0.00  0.97  0.00  0.00
  H0017755                1.00   0.03  0.00  0.00  0.00  0.00  0.00  0.97  0.00  0.00
  H0017791                1.00   0.03  0.00  0.00  0.97  0.00  0.00  0.00  0.97  0.00
  H0017357                1.00   0.03  0.97  0.00  0.00  0.00  0.00  0.00  0.97  0.00
  H0018216                1.00   0.03  0.92  0.00  0.05  0.00  0.00  0.00  0.97  0.00
  H0016792                1.00   0.03  0.92  0.00  0.05  0.00  0.00  0.00  0.97  0.00
  H0019507                1.00   0.03  0.00  0.00  0.97  0.00  0.00  0.00  0.97  0.00
  H0019998                1.00   0.03  0.00  0.00  0.93  0.04  0.00  0.00  0.05  0.00
  H0019576                1.00   0.03  0.00  0.00  0.95  0.02  0.00  0.00  0.05  0.00
  H0020087                1.00   0.03  0.96  0.00  0.01  0.00  0.00  0.00  0.97  0.00
  H0020211                1.00   0.03  0.00  0.00  0.97  0.00  0.00  0.00  0.91  0.00
  H0018982                1.00   0.03  0.00  0.00  0.97  0.00  0.00  0.00  0.94  0.00
  H0018753                1.00   0.03  0.00  0.00  0.97  0.00  0.00  0.00  0.97  0.00
  H0018845                1.00   1.00  0.00  0.00  0.00  0.00  0.00  0.00  0.00  0.00
  H0018863                1.00   0.03  0.00  0.00  0.97  0.00  0.00  0.00  0.97  0.00
  H0019156                1.00   1.00  0.00  0.00  0.00  0.00  0.00  0.00  0.00  0.00
  H0018929                1.00   0.03  0.92  0.00  0.05  0.00  0.00  0.00  0.97  0.00
  H0018440                1.00   0.03  0.00  0.00  0.97  0.00  0.00  0.00  0.97  0.00
  H0018456                1.00   0.03  0.00  0.00  0.97  0.00  0.00  0.00  0.97  0.00
  H0018968                1.00   0.03  0.91  0.00  0.02  0.04  0.00  0.00  0.93  0.00
  H0022036                1.00   0.03  0.00  0.00  0.01  0.00  0.00  0.96  0.01  0.00
  H0021806                1.00   0.03  0.92  0.00  0.05  0.00  0.00  0.00  0.96  0.00
  H0022111                1.00   0.03  0.00  0.00  0.97  0.00  0.00  0.00  0.00  0.00
  H0021440                1.00   0.03  0.00  0.00  0.95  0.02  0.00  0.00  0.02  0.00
  H0021704                1.00   0.03  0.00  0.00  0.00  0.00  0.00  0.97  0.00  0.00
  H0020521                1.00   0.03  0.00  0.00  0.97  0.00  0.00  0.00  0.97  0.00
  H0020755                1.00   0.03  0.93  0.00  0.04  0.00  0.00  0.00  0.97  0.00
  H0020530                1.00   0.03  0.00  0.00  0.95  0.02  0.00  0.00  0.01  0.00
  H0020618                1.00   0.03  0.00  0.00  0.94  0.03  0.00  0.00  0.93  0.00
  H0021163                1.00   0.03  0.00  0.00  0.96  0.01  0.00  0.00  0.94  0.00
  H0020497                1.20   0.03  0.97  0.00  0.00  0.00  0.00  0.00  0.00  0.00
  H0024325                1.00   0.03  0.00  0.00  0.95  0.02  0.00  0.00  0.94  0.00
  H0023585                1.00   0.03  0.00  0.00  0.00  0.00  0.00  0.97  0.00  0.00
  H0024098                1.00   0.03  0.93  0.00  0.04  0.00  0.00  0.00  0.97  0.00
  H0024235                1.00   0.03  0.00  0.00  0.00  0.00  0.00  0.97  0.00  0.00
  H0024282                1.00   1.00  0.00  0.00  0.00  0.00  0.00  0.00  0.00  0.00
  H0024308                1.00   0.03  0.00  0.00  0.92  0.05  0.00  0.00  0.01  0.00
  H0024498                1.00   0.03  0.00  0.00  0.00  0.00  0.00  0.97  0.00  0.00
  H0026990                1.00   0.03  0.00  0.00  0.97  0.00  0.00  0.00  0.97  0.00
  H0041650                1.00   0.95  0.01  0.00  0.04  0.00  0.00  0.00  0.96  0.00
  H0041011                1.00   0.03  0.00  0.00  0.97  0.00  0.00  0.00  0.97  0.00
  H0045103                1.00   0.03  0.00  0.00  0.97  0.00  0.00  0.00  0.95  0.00
  H0045104                1.00   0.03  0.00  0.00  0.93  0.04  0.00  0.00  0.05  0.00
  H0045105                1.00   0.03  0.00  0.00  0.97  0.00  0.00  0.00  0.97  0.00
  H0045106                1.00   0.03  0.93  0.00  0.02  0.03  0.00  0.00  0.97  0.00
  H0045107                1.00   0.03  0.00  0.00  0.97  0.00  0.00  0.00  0.97  0.00
  H0045108                1.00   0.03  0.00  0.00  0.97  0.00  0.00  0.00  0.97  0.00
  
  
  *************************
  Conduit Surcharge Summary
  *************************
  
  ----------------------------------------------------------------------------
                                                           Hours        Hours 
                         --------- Hours Full --------   Above Full   Capacity
  Conduit                Both Ends  Upstream  Dnstream   Normal Flow   Limited
  ----------------------------------------------------------------------------
  H0014431                    0.08      0.09      0.08      0.11         0.09
  H0014433                    0.02      0.02      0.06      0.01         0.01
  H0017981                    0.01      0.02      0.01      0.12         0.01
  H0017755                    0.01      0.01      0.01      0.05         0.01
  H0017357                    0.01      0.01      0.03      0.01         0.01
  H0018216                    0.02      0.05      0.02      0.08         0.04
  H0019507                    0.02      0.02      0.09      0.01         0.01
  H0020211                    0.01      0.01      0.01      0.09         0.01
  H0018753                    0.03      0.03      0.09      0.01         0.01
  H0018863                    0.09      0.09      0.10      0.02         0.02
  H0018440                    0.07      0.11      0.07      0.14         0.10
  H0021806                    0.01      0.03      0.01      0.06         0.02
  H0020521                    0.03      0.03      0.05      0.01         0.01
  H0020530                    0.01      0.01      0.01      0.01         0.01
  H0021163                    0.05      0.06      0.07      0.07         0.05
  H0024098                    0.10      0.10      0.13      0.07         0.06
  H0024498                    0.01      0.08      0.01      0.11         0.06
  H0041011                    0.07      0.07      0.10      0.01         0.01
  H0045107                    0.07      0.07      0.09      0.01         0.01
  H0045108                    0.09      0.09      0.11      0.06         0.06
  

  Analysis begun on:  Fri Mar 22 15:56:44 2024
  Analysis ended on:  Fri Mar 22 15:56:52 2024
  Total elapsed time: 00:00:08