
  EPA STORM WATER MANAGEMENT MODEL - VERSION 5.2 (Build 5.2.4)
  PYSWMM TOOLKIT API - VERSION v1.0 (2023-11-27)
  ------------------------------------------------------------

  Gievenbeck_e2_T50D1440 
  
  ****************
  Analysis Options
  ****************
  Flow Units ............... CMS
  Process Models:
    Rainfall/Runoff ........ YES
    RDII ................... NO
    Snowmelt ............... NO
    Groundwater ............ NO
    Flow Routing ........... YES
    Ponding Allowed ........ NO
    Water Quality .......... NO
  Infiltration Method ...... HORTON
  Flow Routing Method ...... DYNWAVE
  Surcharge Method ......... SLOT
  Starting Date ............ 01/01/2024 00:00:00
  Ending Date .............. 01/04/2024 04:00:00
  Antecedent Dry Days ...... 14.0
  Report Time Step ......... 00:01:00
  Wet Time Step ............ 00:01:00
  Dry Time Step ............ 00:01:00
  Routing Time Step ........ 1.00 sec
  Variable Time Step ....... YES
  Maximum Trials ........... 8
  Number of Threads ........ 1
  Head Tolerance ........... 0.001500 m
  
  
  **************************        Volume         Depth
  Runoff Quantity Continuity     hectare-m            mm
  **************************     ---------       -------
  Total Precipitation ......         0.897        88.620
  Evaporation Loss .........         0.010         0.948
  Infiltration Loss ........         0.393        38.786
  Surface Runoff ...........         0.496        48.959
  Final Storage ............         0.000         0.000
  Continuity Error (%) .....        -0.083
  
  
  **************************        Volume        Volume
  Flow Routing Continuity        hectare-m      10^6 ltr
  **************************     ---------     ---------
  Dry Weather Inflow .......         0.000         0.000
  Wet Weather Inflow .......         0.496         4.956
  Groundwater Inflow .......         0.000         0.000
  RDII Inflow ..............         0.000         0.000
  External Inflow ..........         0.000         0.000
  External Outflow .........         0.469         4.692
  Flooding Loss ............         0.027         0.270
  Evaporation Loss .........         0.000         0.000
  Exfiltration Loss ........         0.000         0.000
  Initial Stored Volume ....         0.000         0.000
  Final Stored Volume ......         0.000         0.000
  Continuity Error (%) .....        -0.132
  
  
  *************************
  Highest Continuity Errors
  *************************
  Node R0019205 (-21.39%)
  Node R0019206 (1.42%)
  
  
  ***************************
  Time-Step Critical Elements
  ***************************
  None
  
  
  ********************************
  Highest Flow Instability Indexes
  ********************************
  All links are stable.
  
  
  *********************************
  Most Frequent Nonconverging Nodes
  *********************************
  Convergence obtained at all time steps.
  
  
  *************************
  Routing Time Step Summary
  *************************
  Minimum Time Step           :     0.50 sec
  Average Time Step           :     1.00 sec
  Maximum Time Step           :     1.00 sec
  % of Time in Steady State   :     0.00
  Average Iterations per Step :     2.00
  % of Steps Not Converging   :     0.00
  Time Step Frequencies       :
      1.000 -  0.871 sec      :    99.98 %
      0.871 -  0.758 sec      :     0.01 %
      0.758 -  0.660 sec      :     0.00 %
      0.660 -  0.574 sec      :     0.00 %
      0.574 -  0.500 sec      :     0.01 %
  
  
  ***************************
  Subcatchment Runoff Summary
  ***************************
  
  ------------------------------------------------------------------------------------------------------------------------------
                            Total      Total      Total      Total     Imperv       Perv      Total       Total     Peak  Runoff
                           Precip      Runon       Evap      Infil     Runoff     Runoff     Runoff      Runoff   Runoff   Coeff
  Subcatchment                 mm         mm         mm         mm         mm         mm         mm    10^6 ltr      CMS
  ------------------------------------------------------------------------------------------------------------------------------
  EZG_368                   88.62       0.00       0.94      39.03      43.42      11.82      48.72        0.20     0.19   0.550
  EZG_392                   88.62       0.00       0.94      38.85      43.42      12.00      48.91        0.16     0.15   0.552
  EZG_352                   88.62       0.00       0.95      39.31      43.41      11.53      48.43        0.29     0.26   0.546
  EZG_372                   88.62       0.00       0.93      38.28      43.45      12.58      49.51        0.07     0.07   0.559
  EZG_416                   88.62       0.00       0.94      38.77      43.43      12.08      48.99        0.14     0.14   0.553
  EZG_388                   88.62       0.00       0.94      39.10      43.42      11.74      48.64        0.22     0.21   0.549
  EZG_394                   88.62       0.00       0.94      38.74      43.43      12.11      49.02        0.14     0.13   0.553
  EZG_400                   88.62       0.00       0.94      38.69      43.43      12.16      49.08        0.13     0.12   0.554
  EZG_390                   88.62       0.00       0.94      38.83      43.43      12.02      48.93        0.15     0.15   0.552
  EZG_350                   88.62       0.00       0.94      39.11      43.42      11.73      48.64        0.22     0.21   0.549
  EZG_370                   88.62       0.00       0.94      38.92      43.42      11.92      48.83        0.18     0.17   0.551
  EZG_398                   88.62       0.00       0.93      38.11      43.45      12.76      49.69        0.05     0.05   0.561
  EZG_382                   88.62       0.00       0.93      38.05      43.46      12.82      49.76        0.04     0.05   0.561
  EZG_374                   88.62       0.00       1.14      32.35      52.09      10.94      55.22        0.21     0.19   0.623
  EZG_412                   88.62       0.00       0.92      37.67      43.47      13.20      50.16        0.02     0.02   0.566
  EZG_344                   88.62       0.00       0.94      38.67      43.43      12.17      49.09        0.12     0.12   0.554
  EZG_376                   88.62       0.00       0.93      38.52      43.44      12.33      49.26        0.10     0.10   0.556
  EZG_356                   88.62       0.00       0.95      39.38      43.41      11.46      48.36        0.31     0.28   0.546
  EZG_386                   88.62       0.00       0.95      39.57      43.40      11.27      48.16        0.38     0.33   0.543
  EZG_380                   88.62       0.00       0.94      38.98      43.42      11.86      48.77        0.19     0.18   0.550
  EZG_378                   88.62       0.00       0.94      38.89      43.42      11.96      48.87        0.17     0.16   0.551
  EZG_414                   88.62       0.00       0.93      38.04      43.46      12.83      49.76        0.04     0.05   0.562
  EZG_402                   88.62       0.00       0.94      38.85      43.42      12.00      48.91        0.16     0.15   0.552
  EZG_358                   88.62       0.00       0.95      39.37      43.41      11.47      48.37        0.31     0.27   0.546
  EZG_364                   88.62       0.00       0.95      39.37      43.41      11.47      48.37        0.31     0.27   0.546
  EZG_410                   88.62       0.00       0.93      38.55      43.44      12.30      49.22        0.10     0.10   0.555
  EZG_366                   88.62       0.00       0.94      38.64      43.43      12.21      49.13        0.12     0.12   0.554
  EZG_18259                 88.62       0.00       0.94      38.63      43.43      12.22      49.14        0.12     0.12   0.554
  EZG_18258                 88.62       0.00       0.92      37.86      43.46      13.01      49.95        0.03     0.03   0.564
  EZG_346                   88.62       0.00       0.92      39.59      42.55      12.01      48.18        0.18     0.17   0.544
  EZG_348                   88.62       0.00       0.92      39.24      42.57      12.37      48.55        0.11     0.11   0.548
  
  
  ******************
  Node Depth Summary
  ******************
  
  ---------------------------------------------------------------------------------
                                 Average  Maximum  Maximum  Time of Max    Reported
                                   Depth    Depth      HGL   Occurrence   Max Depth
  Node                 Type       Meters   Meters   Meters  days hr:min      Meters
  ---------------------------------------------------------------------------------
  R0019466             JUNCTION     0.02     2.81    72.26     0  10:03        2.81
  R0019468             JUNCTION     0.02     2.73    72.04     0  10:03        2.73
  R0019831             JUNCTION     0.01     1.66    70.83     0  10:01        1.66
  R0019825             JUNCTION     0.02     1.50    70.34     0  10:01        1.50
  R0019843             JUNCTION     0.02     2.12    69.75     0  10:05        1.98
  R0019368             JUNCTION     0.03     1.95    68.74     0  10:05        1.95
  R0019369             JUNCTION     0.02     1.31    67.90     0  10:05        1.25
  R0019370             JUNCTION     0.02     0.69    66.59     0  10:05        0.67
  R0019345             JUNCTION     0.02     2.05    71.95     0  10:05        1.95
  R0019346             JUNCTION     0.01     2.14    71.94     0  10:05        1.90
  R0043600             JUNCTION     0.02     2.81    72.48     0  10:05        2.54
  R0019203             JUNCTION     0.02     2.64    72.18     0  10:05        2.46
  R0043594             JUNCTION     0.01     2.75    72.48     0  10:04        2.35
  R0021458             JUNCTION     0.02     2.60    72.25     0  10:04        2.28
  R0019202             JUNCTION     0.02     2.66    72.24     0  10:05        2.39
  R0019373             JUNCTION     0.01     2.80    72.47     0  10:04        2.80
  R0019254             JUNCTION     0.02     2.13    72.17     0  10:03        2.13
  R0019716             JUNCTION     0.02     2.52    71.53     0  10:05        1.94
  R0019946             JUNCTION     0.04     2.42    71.04     0  10:05        2.02
  R0013935             JUNCTION     0.01     1.62    70.45     0  10:02        1.62
  R0019939             JUNCTION     0.01     1.92    70.49     0  10:05        1.82
  R0019944             JUNCTION     0.02     1.92    70.20     0  10:05        1.70
  R0043703             JUNCTION     0.02     2.09    70.69     0  10:05        1.76
  R0019945             JUNCTION     0.02     1.98    70.38     0  10:05        1.72
  R0039621             JUNCTION     0.00     1.56    71.13     0  10:03        1.56
  R0019838             JUNCTION     0.02     1.80    71.26     0  10:03        1.80
  R0039606             JUNCTION     0.02     2.65    72.24     0  10:05        2.37
  R0019204             JUNCTION     0.00     0.00    69.91     0  00:00        0.00
  R0019205             JUNCTION     0.00     0.07    69.69     0  10:06        0.07
  R0019849             JUNCTION     0.02     1.92    70.44     0  10:05        1.71
  R0019371             JUNCTION     0.00     0.00    70.41     0  00:00        0.00
  R0019718             JUNCTION     0.03     2.69    72.11     0  10:05        2.48
  R0021442             JUNCTION     0.02     2.05    72.10     0  10:01        2.05
  R0019247             JUNCTION     0.02     2.26    72.14     0  10:05        1.87
  R0019719             JUNCTION     0.02     2.30    71.98     0  10:05        1.80
  R0019767             JUNCTION     0.02     0.73    65.46     0  10:05        0.72
  R0019768             JUNCTION     0.02     0.59    64.36     0  10:05        0.58
  R0021453             JUNCTION     0.01     2.40    72.35     0  10:04        2.26
  R0019839             JUNCTION     0.01     2.01    71.40     0  10:03        1.89
  R0019717             JUNCTION     0.02     2.56    71.90     0  10:05        2.16
  R0019252             JUNCTION     0.01     1.94    72.13     0  10:01        1.94
  R0019721             JUNCTION     0.01     1.96    71.83     0  10:05        1.90
  R0019942             JUNCTION     0.01     1.86    70.51     0  10:05        1.63
  R0019206             JUNCTION     0.00     0.86    69.93     0  10:05        0.52
  R0019840             JUNCTION     0.01     2.13    71.10     0  10:05        2.13
  R0043702             JUNCTION     0.02     2.34    71.04     0  10:05        2.33
  R0019723             JUNCTION     0.01     1.72    71.80     0  10:04        1.72
  R0019724             JUNCTION     0.01     1.72    71.88     0  10:04        1.67
  R0021433             JUNCTION     0.01     2.15    72.54     0  10:01        2.15
  R0021435             JUNCTION     0.02     2.11    72.29     0  10:01        2.11
  R0019769             OUTFALL      0.02     0.59    63.97     0  10:05        0.58
  
  
  *******************
  Node Inflow Summary
  *******************
  
  -------------------------------------------------------------------------------------------------
                                  Maximum  Maximum                  Lateral       Total        Flow
                                  Lateral    Total  Time of Max      Inflow      Inflow     Balance
                                   Inflow   Inflow   Occurrence      Volume      Volume       Error
  Node                 Type           CMS      CMS  days hr:min    10^6 ltr    10^6 ltr     Percent
  -------------------------------------------------------------------------------------------------
  R0019466             JUNCTION     0.189    0.222     0  10:05       0.201        0.32       0.010
  R0019468             JUNCTION     0.117    0.192     0  10:05       0.118       0.411      -0.002
  R0019831             JUNCTION     0.153    0.153     0  10:05       0.158       0.158       0.009
  R0019825             JUNCTION     0.153    0.254     0  10:05       0.159        0.31       0.020
  R0019843             JUNCTION     0.000    2.764     0  10:05           0         4.7      -0.037
  R0019368             JUNCTION     0.000    2.701     0  10:05           0        4.69      -0.019
  R0019369             JUNCTION     0.000    2.665     0  10:05           0        4.69      -0.012
  R0019370             JUNCTION     0.000    2.623     0  10:05           0        4.69       0.002
  R0019345             JUNCTION     0.000    0.163     0  10:02           0       0.274       0.016
  R0019346             JUNCTION     0.022    0.318     0  10:03        0.02       0.476       0.007
  R0043600             JUNCTION     0.000    0.225     0  10:04           0       0.501      -0.043
  R0019203             JUNCTION     0.047    0.950     0  10:05       0.044        1.32      -0.050
  R0043594             JUNCTION     0.258    0.688     0  10:04       0.286       0.421      -0.125
  R0021458             JUNCTION     0.208    0.679     0  10:05       0.223       0.645      -0.057
  R0019202             JUNCTION     0.070    0.853     0  10:04       0.067       0.777      -0.181
  R0019373             JUNCTION     0.167    0.230     0  10:03       0.175       0.191       0.565
  R0019254             JUNCTION     0.139    0.177     0  10:01       0.143       0.277       0.016
  R0019716             JUNCTION     0.206    1.829     0  10:05       0.222         2.7      -0.010
  R0019946             JUNCTION     0.000    1.848     0  10:05           0         2.7      -0.007
  R0013935             JUNCTION     0.133    0.133     0  10:05       0.136       0.136       0.010
  R0019939             JUNCTION     0.052    0.129     0  10:02      0.0492       0.171      -0.015
  R0019944             JUNCTION     0.125    2.133     0  10:05       0.126        3.41       0.005
  R0043703             JUNCTION     0.150    1.934     0  10:05       0.155        2.85      -0.008
  R0019945             JUNCTION     0.000    2.023     0  10:05           0        3.28      -0.014
  R0039621             JUNCTION     0.000    0.255     0  10:05           0      0.0456      -0.487
  R0019838             JUNCTION     0.277    0.302     0  10:05        0.31       0.315      -0.078
  R0039606             JUNCTION     0.000    0.668     0  10:04           0       0.643       0.096
  R0019204             JUNCTION     0.000    0.000     0  00:00           0           0       0.000 ltr
  R0019205             JUNCTION     0.000    0.029     0  10:05           0    0.000518     -17.620
  R0019849             JUNCTION     0.000    0.223     0  10:02           0       0.429       0.002
  R0019371             JUNCTION     0.000    0.000     0  00:00           0           0       0.000 ltr
  R0019718             JUNCTION     0.180    1.111     0  10:05        0.19        1.51      -0.235
  R0021442             JUNCTION     0.190    0.262     0  10:05       0.209       0.442       0.007
  R0019247             JUNCTION     0.099    0.226     0  10:03      0.0982       0.503       0.052
  R0019719             JUNCTION     0.104    0.403     0  10:03       0.103       0.579       0.231
  R0019767             JUNCTION     0.000    2.600     0  10:05           0        4.69      -0.002
  R0019768             JUNCTION     0.000    2.585     0  10:05           0        4.69       0.003
  R0021453             JUNCTION     0.123    0.625     0  10:04       0.124       0.128      -1.301
  R0019839             JUNCTION     0.274    0.406     0  10:03       0.306       0.574       0.016
  R0019717             JUNCTION     0.334    1.640     0  10:05       0.385        2.48       0.026
  R0019252             JUNCTION     0.161    0.180     0  10:05       0.167       0.169      -0.028
  R0019721             JUNCTION     0.046    0.168     0  10:03      0.0433       0.184       0.021
  R0019942             JUNCTION     0.000    0.123     0  10:01           0       0.258      -0.037
  R0019206             JUNCTION     0.000    0.128     0  10:05           0     0.00449       1.443
  R0019840             JUNCTION     0.000    0.551     0  10:03           0        0.98      -0.032
  R0043702             JUNCTION     0.274    0.735     0  10:03       0.306        1.29       0.226
  R0019723             JUNCTION     0.116    0.155     0  10:04       0.117       0.148      -0.090
  R0019724             JUNCTION     0.033    0.056     0  10:02      0.0306      0.0308      -0.230
  R0021433             JUNCTION     0.168    0.168     0  10:05       0.175       0.175      -0.064
  R0021435             JUNCTION     0.109    0.180     0  10:05       0.108       0.263       0.006
  R0019769             OUTFALL      0.000    2.595     0  10:05           0        4.69       0.000
  
  
  **********************
  Node Surcharge Summary
  **********************
  
  Surcharging occurs when water rises above the top of the highest conduit.
  ---------------------------------------------------------------------
                                               Max. Height   Min. Depth
                                   Hours       Above Crown    Below Rim
  Node                 Type      Surcharged         Meters       Meters
  ---------------------------------------------------------------------
  R0019466             JUNCTION        0.27          2.510        0.000
  R0019468             JUNCTION        0.27          2.430        0.000
  R0019831             JUNCTION        0.18          1.360        0.000
  R0019825             JUNCTION        0.22          1.200        0.000
  R0019843             JUNCTION        0.12          1.217        1.403
  R0019368             JUNCTION        0.15          1.050        0.000
  R0019369             JUNCTION        0.04          0.408        0.642
  R0019345             JUNCTION        0.17          1.750        0.000
  R0019346             JUNCTION        0.14          1.740        0.000
  R0043600             JUNCTION        0.16          2.413        0.167
  R0019203             JUNCTION        0.07          1.737        0.243
  R0043594             JUNCTION        0.05          1.820        0.000
  R0021458             JUNCTION        0.06          1.701        0.379
  R0019202             JUNCTION        0.07          1.761        0.239
  R0019373             JUNCTION        0.19          2.500        0.000
  R0019254             JUNCTION        0.19          1.830        0.000
  R0019716             JUNCTION        0.09          1.619        0.101
  R0019946             JUNCTION        0.13          1.520        0.000
  R0013935             JUNCTION        0.19          1.320        0.000
  R0019939             JUNCTION        0.27          1.620        0.000
  R0019944             JUNCTION        0.08          1.021        0.509
  R0043703             JUNCTION        0.08          1.191        0.129
  R0019945             JUNCTION        0.08          1.084        0.376
  R0039621             JUNCTION        0.09          1.060        0.000
  R0019838             JUNCTION        0.10          1.300        0.000
  R0039606             JUNCTION        0.07          1.753        0.247
  R0019849             JUNCTION        0.29          1.621        0.309
  R0019718             JUNCTION        0.08          1.792        0.208
  R0021442             JUNCTION        0.29          1.750        0.000
  R0019247             JUNCTION        0.18          1.860        0.000
  R0019719             JUNCTION        0.12          1.800        0.000
  R0021453             JUNCTION        0.04          1.500        0.000
  R0019839             JUNCTION        0.10          1.513        0.137
  R0019717             JUNCTION        0.07          1.620        0.230
  R0019252             JUNCTION        0.17          1.640        0.000
  R0019721             JUNCTION        0.14          1.560        0.000
  R0019942             JUNCTION        0.24          1.564        0.086
  R0019206             JUNCTION        0.02          0.558        1.152
  R0019840             JUNCTION        0.13          1.631        0.939
  R0043702             JUNCTION        0.15          1.840        1.070
  R0019723             JUNCTION        0.11          1.320        0.000
  R0019724             JUNCTION        0.11          1.423        0.027
  R0021433             JUNCTION        0.23          1.850        0.000
  R0021435             JUNCTION        0.27          1.810        0.000
  
  
  *********************
  Node Flooding Summary
  *********************
  
  Flooding refers to all water that overflows a node, whether it ponds or not.
  --------------------------------------------------------------------------
                                                             Total   Maximum
                                 Maximum   Time of Max       Flood    Ponded
                        Hours       Rate    Occurrence      Volume     Depth
  Node                 Flooded       CMS   days hr:min    10^6 ltr    Meters
  --------------------------------------------------------------------------
  R0019466                0.04     0.147      0  10:05       0.011     0.000
  R0019468                0.04     0.039      0  10:05       0.003     0.000
  R0019831                0.07     0.052      0  10:05       0.007     0.000
  R0019825                0.12     0.210      0  10:05       0.052     0.000
  R0019368                0.01     0.073      0  10:05       0.002     0.000
  R0019345                0.01     0.046      0  10:05       0.001     0.000
  R0019346                0.01     0.036      0  10:05       0.000     0.000
  R0043594                0.01     0.152      0  10:04       0.000     0.000
  R0019373                0.01     0.045      0  10:04       0.000     0.000
  R0019254                0.03     0.015      0  10:05       0.001     0.000
  R0019946                0.01     0.083      0  10:05       0.001     0.000
  R0013935                0.08     0.091      0  10:05       0.015     0.000
  R0019939                0.01     0.017      0  10:05       0.000     0.000
  R0039621                0.06     0.255      0  10:05       0.042     0.000
  R0019838                0.02     0.047      0  10:05       0.002     0.000
  R0021442                0.11     0.202      0  10:05       0.037     0.000
  R0019247                0.01     0.107      0  10:05       0.001     0.000
  R0019719                0.01     0.022      0  10:05       0.000     0.000
  R0021453                0.01     0.122      0  10:04       0.001     0.000
  R0019252                0.09     0.180      0  10:05       0.035     0.000
  R0019721                0.01     0.068      0  10:05       0.002     0.000
  R0019723                0.03     0.075      0  10:05       0.006     0.000
  R0021433                0.10     0.096      0  10:05       0.020     0.000
  R0021435                0.12     0.108      0  10:05       0.031     0.000
  
  
  ***********************
  Outfall Loading Summary
  ***********************
  
  -----------------------------------------------------------
                         Flow       Avg       Max       Total
                         Freq      Flow      Flow      Volume
  Outfall Node           Pcnt       CMS       CMS    10^6 ltr
  -----------------------------------------------------------
  R0019769              33.59     0.051     2.595       4.692
  -----------------------------------------------------------
  System                33.59     0.051     2.595       4.692
  
  
  ********************
  Link Flow Summary
  ********************
  
  -----------------------------------------------------------------------------
                                 Maximum  Time of Max   Maximum    Max/    Max/
                                  |Flow|   Occurrence   |Veloc|    Full    Full
  Link                 Type          CMS  days hr:min     m/sec    Flow   Depth
  -----------------------------------------------------------------------------
  H0014431             CONDUIT     0.089     0  10:02      1.25    1.64    1.00
  H0014433             CONDUIT     0.100     0  10:05      1.42    1.28    1.00
  H0014352             CONDUIT     2.701     0  10:05      4.24    1.11    1.00
  H0014373             CONDUIT     2.623     0  10:05      4.34    1.21    1.00
  H0017981             CONDUIT     0.164     0  10:02      2.31    4.63    1.00
  H0017755             CONDUIT     0.251     0  10:04      2.00    2.04    1.00
  H0017791             CONDUIT     0.473     0  10:05      0.74    0.69    1.00
  H0017357             CONDUIT     0.219     0  10:03      3.10    3.51    1.00
  H0018216             CONDUIT     0.163     0  10:02      2.30    2.96    1.00
  H0016792             CONDUIT     1.848     0  10:05      2.91    1.06    1.00
  H0019507             CONDUIT     0.088     0  10:02      1.24    1.22    1.00
  H0019998             CONDUIT     2.146     0  10:05      3.47    0.86    1.00
  H0019576             CONDUIT     1.936     0  10:05      3.04    1.30    1.00
  H0020087             CONDUIT     0.255     0  10:05      1.30    1.12    1.00
  H0020211             CONDUIT     1.807     0  10:05      2.84    4.50    1.00
  H0018982             CONDUIT     0.668     0  10:04      1.05    1.07    1.00
  H0018753             CONDUIT     0.082     0  10:03      1.16    1.16    1.00
  H0018845             CONDUIT     0.000     0  00:00      0.00    0.00    0.12
  H0018863             CONDUIT     0.125     0  10:02      1.77    2.94    1.00
  H0019156             CONDUIT     0.000     0  00:00      0.00    0.00    0.00
  H0018929             CONDUIT     0.943     0  10:05      1.48    0.82    1.00
  H0018440             CONDUIT     0.158     0  10:01      2.24    2.83    1.00
  H0018456             CONDUIT     0.311     0  10:03      2.47    1.89    1.00
  H0018968             CONDUIT     2.585     0  10:05      5.17    0.99    0.73
  H0022036             CONDUIT     0.506     0  10:04      0.79    0.39    1.00
  H0021806             CONDUIT     0.224     0  10:03      1.78    1.98    1.00
  H0022111             CONDUIT     0.185     0  10:03      0.94    1.32    1.00
  H0021440             CONDUIT     1.641     0  10:05      2.58    1.06    1.00
  H0021704             CONDUIT     1.115     0  10:05      1.75    2.13    1.00
  H0020521             CONDUIT     0.082     0  10:01      1.16    1.66    1.00
  H0020755             CONDUIT     0.161     0  10:03      1.28    1.78    1.00
  H0020530             CONDUIT     2.665     0  10:05      4.19    2.28    1.00
  H0020618             CONDUIT     2.026     0  10:05      3.35    1.26    1.00
  H0021163             CONDUIT     0.123     0  10:01      1.74    2.05    1.00
  H0020497             CONDUIT     0.128     0  10:05      1.80    0.28    1.00
  H0024325             CONDUIT     0.397     0  10:03      2.02    1.18    1.00
  H0023585             CONDUIT     0.707     0  10:03      3.60    1.63    1.00
  H0024098             CONDUIT     0.220     0  10:02      3.12    2.57    1.00
  H0024235             CONDUIT     0.399     0  10:03      2.03    1.63    1.00
  H0024282             CONDUIT     0.029     0  10:05      0.62    0.29    1.00
  H0024308             CONDUIT     2.595     0  10:05      5.90    0.76    0.65
  H0024498             CONDUIT     0.165     0  10:02      2.34    2.56    1.00
  H0026990             CONDUIT     0.125     0  10:03      1.00    0.95    1.00
  H0041650             CONDUIT     0.838     0  10:04      1.32    0.98    1.00
  H0041011             CONDUIT     0.115     0  10:01      1.62    1.14    1.00
  H0045103             CONDUIT     0.642     0  10:04      1.03    0.81    1.00
  H0045104             CONDUIT     2.600     0  10:05      4.86    0.92    0.78
  H0045105             CONDUIT     0.042     0  10:04      0.59    0.73    1.00
  H0045106             CONDUIT     0.509     0  10:03      2.59    0.69    1.00
  H0045107             CONDUIT     0.072     0  10:07      1.01    1.18    1.00
  H0045108             CONDUIT     0.089     0  10:09      1.25    1.60    1.00
  
  
  ***************************
  Flow Classification Summary
  ***************************
  
  -------------------------------------------------------------------------------------
                      Adjusted    ---------- Fraction of Time in Flow Class ---------- 
                       /Actual         Up    Down  Sub   Sup   Up    Down  Norm  Inlet 
  Conduit               Length    Dry  Dry   Dry   Crit  Crit  Crit  Crit  Ltd   Ctrl  
  -------------------------------------------------------------------------------------
  H0014431                1.00   0.04  0.00  0.00  0.96  0.00  0.00  0.00  0.95  0.00
  H0014433                1.00   0.04  0.00  0.00  0.96  0.00  0.00  0.00  0.96  0.00
  H0014352                1.00   0.04  0.00  0.00  0.65  0.31  0.00  0.00  0.96  0.00
  H0014373                1.00   0.04  0.00  0.00  0.63  0.33  0.00  0.00  0.62  0.00
  H0017981                1.00   0.04  0.00  0.00  0.00  0.00  0.00  0.96  0.00  0.00
  H0017755                1.00   0.04  0.00  0.00  0.00  0.00  0.00  0.96  0.00  0.00
  H0017791                1.00   0.04  0.00  0.00  0.96  0.00  0.00  0.00  0.96  0.00
  H0017357                1.00   0.04  0.96  0.00  0.00  0.00  0.00  0.00  0.87  0.00
  H0018216                1.00   0.04  0.62  0.00  0.34  0.00  0.00  0.00  0.96  0.00
  H0016792                1.00   0.04  0.62  0.00  0.34  0.00  0.00  0.00  0.96  0.00
  H0019507                1.00   0.04  0.00  0.00  0.96  0.00  0.00  0.00  0.96  0.00
  H0019998                1.00   0.04  0.00  0.00  0.63  0.33  0.00  0.00  0.34  0.00
  H0019576                1.00   0.04  0.00  0.00  0.66  0.30  0.00  0.00  0.33  0.00
  H0020087                1.00   0.04  0.94  0.00  0.02  0.00  0.00  0.00  0.86  0.00
  H0020211                1.00   0.04  0.00  0.00  0.96  0.00  0.00  0.00  0.61  0.00
  H0018982                1.00   0.04  0.00  0.00  0.96  0.00  0.00  0.00  0.64  0.00
  H0018753                1.00   0.04  0.00  0.00  0.96  0.00  0.00  0.00  0.96  0.00
  H0018845                1.00   0.13  0.87  0.00  0.00  0.00  0.00  0.00  0.00  0.00
  H0018863                1.00   0.04  0.00  0.00  0.96  0.00  0.00  0.00  0.95  0.00
  H0019156                1.00   1.00  0.00  0.00  0.00  0.00  0.00  0.00  0.00  0.00
  H0018929                1.00   0.04  0.62  0.00  0.34  0.00  0.00  0.00  0.96  0.00
  H0018440                1.00   0.04  0.00  0.00  0.96  0.00  0.00  0.00  0.95  0.00
  H0018456                1.00   0.04  0.00  0.00  0.96  0.00  0.00  0.00  0.95  0.00
  H0018968                1.00   0.04  0.00  0.00  0.63  0.33  0.00  0.00  0.64  0.00
  H0022036                1.00   0.04  0.00  0.00  0.06  0.05  0.00  0.86  0.04  0.00
  H0021806                1.00   0.04  0.62  0.00  0.34  0.00  0.00  0.00  0.66  0.00
  H0022111                1.00   0.04  0.00  0.00  0.96  0.00  0.00  0.00  0.00  0.00
  H0021440                1.00   0.04  0.00  0.00  0.65  0.31  0.00  0.00  0.02  0.00
  H0021704                1.00   0.04  0.00  0.00  0.00  0.00  0.00  0.96  0.00  0.00
  H0020521                1.00   0.04  0.00  0.00  0.96  0.00  0.00  0.00  0.96  0.00
  H0020755                1.00   0.04  0.63  0.00  0.33  0.00  0.00  0.00  0.95  0.00
  H0020530                1.00   0.04  0.00  0.00  0.65  0.31  0.00  0.00  0.02  0.00
  H0020618                1.00   0.04  0.00  0.00  0.64  0.32  0.00  0.00  0.66  0.00
  H0021163                1.00   0.04  0.00  0.00  0.94  0.02  0.00  0.00  0.64  0.00
  H0020497                1.20   0.04  0.95  0.00  0.01  0.00  0.00  0.00  0.87  0.00
  H0024325                1.00   0.04  0.00  0.00  0.65  0.31  0.00  0.00  0.64  0.00
  H0023585                1.00   0.04  0.00  0.00  0.00  0.00  0.00  0.96  0.00  0.00
  H0024098                1.00   0.04  0.63  0.00  0.33  0.00  0.00  0.00  0.95  0.00
  H0024235                1.00   0.04  0.00  0.00  0.00  0.00  0.00  0.96  0.00  0.00
  H0024282                1.00   0.13  0.00  0.00  0.86  0.00  0.00  0.00  0.00  0.00
  H0024308                1.00   0.04  0.00  0.00  0.62  0.35  0.00  0.00  0.24  0.00
  H0024498                1.00   0.04  0.00  0.00  0.00  0.00  0.00  0.96  0.00  0.00
  H0026990                1.00   0.04  0.00  0.00  0.96  0.00  0.00  0.00  0.96  0.00
  H0041650                1.00   0.66  0.01  0.00  0.33  0.00  0.00  0.00  0.94  0.00
  H0041011                1.00   0.04  0.00  0.00  0.96  0.00  0.00  0.00  0.95  0.00
  H0045103                1.00   0.04  0.00  0.00  0.96  0.00  0.00  0.00  0.65  0.00
  H0045104                1.00   0.04  0.00  0.00  0.63  0.34  0.00  0.00  0.34  0.00
  H0045105                1.00   0.04  0.00  0.00  0.96  0.00  0.00  0.00  0.96  0.00
  H0045106                1.00   0.04  0.63  0.00  0.02  0.32  0.00  0.00  0.96  0.00
  H0045107                1.00   0.04  0.00  0.00  0.96  0.00  0.00  0.00  0.96  0.00
  H0045108                1.00   0.04  0.00  0.00  0.96  0.00  0.00  0.00  0.96  0.00
  
  
  *************************
  Conduit Surcharge Summary
  *************************
  
  ----------------------------------------------------------------------------
                                                           Hours        Hours 
                         --------- Hours Full --------   Above Full   Capacity
  Conduit                Both Ends  Upstream  Dnstream   Normal Flow   Limited
  ----------------------------------------------------------------------------
  H0014431                    0.27      0.27      0.27      0.30         0.27
  H0014433                    0.18      0.18      0.22      0.09         0.09
  H0014352                    0.12      0.12      0.15      0.04         0.04
  H0014373                    0.01      0.04      0.01      0.10         0.02
  H0017981                    0.15      0.17      0.15      0.32         0.15
  H0017755                    0.15      0.16      0.15      0.19         0.14
  H0017791                    0.05      0.05      0.06      0.01         0.01
  H0017357                    0.13      0.13      0.19      0.13         0.01
  H0018216                    0.17      0.19      0.17      0.24         0.18
  H0016792                    0.09      0.09      0.13      0.01         0.01
  H0019507                    0.19      0.19      0.27      0.03         0.02
  H0019998                    0.08      0.08      0.12      0.01         0.01
  H0019576                    0.08      0.08      0.08      0.09         0.06
  H0020087                    0.09      0.09      0.10      0.03         0.01
  H0020211                    0.08      0.13      0.08      0.28         0.09
  H0018982                    0.06      0.06      0.07      0.01         0.01
  H0018753                    0.19      0.19      0.27      0.01         0.01
  H0018863                    0.27      0.27      0.29      0.16         0.15
  H0018929                    0.07      0.07      0.08      0.01         0.01
  H0018440                    0.23      0.29      0.23      0.33         0.26
  H0018456                    0.14      0.14      0.14      0.14         0.13
  H0022036                    0.04      0.04      0.05      0.01         0.01
  H0021806                    0.16      0.18      0.16      0.20         0.16
  H0022111                    0.10      0.10      0.10      0.03         0.03
  H0021440                    0.07      0.07      0.09      0.01         0.01
  H0021704                    0.07      0.08      0.07      0.16         0.06
  H0020521                    0.17      0.17      0.19      0.07         0.06
  H0020755                    0.14      0.14      0.14      0.07         0.07
  H0020530                    0.04      0.15      0.04      0.19         0.14
  H0020618                    0.08      0.08      0.08      0.10         0.07
  H0021163                    0.22      0.22      0.24      0.18         0.15
  H0020497                    0.02      0.02      0.22      0.01         0.01
  H0024325                    0.10      0.10      0.13      0.01         0.01
  H0023585                    0.13      0.15      0.13      0.15         0.13
  H0024098                    0.29      0.29      0.34      0.23         0.22
  H0024235                    0.11      0.12      0.12      0.10         0.09
  H0024282                    0.01      0.01      0.02      0.01         0.01
  H0024498                    0.13      0.27      0.13      0.31         0.22
  H0026990                    0.11      0.11      0.14      0.01         0.01
  H0041650                    0.07      0.07      0.07      0.01         0.01
  H0041011                    0.24      0.24      0.29      0.03         0.03
  H0045103                    0.07      0.07      0.07      0.01         0.01
  H0045105                    0.11      0.11      0.12      0.01         0.01
  H0045106                    0.13      0.13      0.15      0.01         0.01
  H0045107                    0.23      0.23      0.27      0.11         0.11
  H0045108                    0.27      0.27      0.29      0.21         0.21
  

  Analysis begun on:  Fri Mar 22 15:56:54 2024
  Analysis ended on:  Fri Mar 22 15:57:04 2024
  Total elapsed time: 00:00:10