
  EPA STORM WATER MANAGEMENT MODEL - VERSION 5.2 (Build 5.2.4)
  PYSWMM TOOLKIT API - VERSION v1.0 (2023-11-27)
  ------------------------------------------------------------

  Gievenbeck_e2_T30D180 
  
  ****************
  Analysis Options
  ****************
  Flow Units ............... CMS
  Process Models:
    Rainfall/Runoff ........ YES
    RDII ................... NO
    Snowmelt ............... NO
    Groundwater ............ NO
    Flow Routing ........... YES
    Ponding Allowed ........ NO
    Water Quality .......... NO
  Infiltration Method ...... HORTON
  Flow Routing Method ...... DYNWAVE
  Surcharge Method ......... SLOT
  Starting Date ............ 01/01/2024 00:00:00
  Ending Date .............. 01/04/2024 04:00:00
  Antecedent Dry Days ...... 14.0
  Report Time Step ......... 00:01:00
  Wet Time Step ............ 00:01:00
  Dry Time Step ............ 00:01:00
  Routing Time Step ........ 1.00 sec
  Variable Time Step ....... YES
  Maximum Trials ........... 8
  Number of Threads ........ 1
  Head Tolerance ........... 0.001500 m
  
  
  **************************        Volume         Depth
  Runoff Quantity Continuity     hectare-m            mm
  **************************     ---------       -------
  Total Precipitation ......         0.479        47.290
  Evaporation Loss .........         0.010         0.954
  Infiltration Loss ........         0.207        20.495
  Surface Runoff ...........         0.262        25.909
  Final Storage ............         0.000         0.000
  Continuity Error (%) .....        -0.144
  
  
  **************************        Volume        Volume
  Flow Routing Continuity        hectare-m      10^6 ltr
  **************************     ---------     ---------
  Dry Weather Inflow .......         0.000         0.000
  Wet Weather Inflow .......         0.262         2.623
  Groundwater Inflow .......         0.000         0.000
  RDII Inflow ..............         0.000         0.000
  External Inflow ..........         0.000         0.000
  External Outflow .........         0.255         2.548
  Flooding Loss ............         0.008         0.075
  Evaporation Loss .........         0.000         0.000
  Exfiltration Loss ........         0.000         0.000
  Initial Stored Volume ....         0.000         0.000
  Final Stored Volume ......         0.000         0.000
  Continuity Error (%) .....        -0.037
  
  
  *************************
  Highest Continuity Errors
  *************************
  Node R0019206 (9.83%)
  Node R0019373 (1.02%)
  
  
  ***************************
  Time-Step Critical Elements
  ***************************
  None
  
  
  ********************************
  Highest Flow Instability Indexes
  ********************************
  All links are stable.
  
  
  *********************************
  Most Frequent Nonconverging Nodes
  *********************************
  Convergence obtained at all time steps.
  
  
  *************************
  Routing Time Step Summary
  *************************
  Minimum Time Step           :     0.33 sec
  Average Time Step           :     1.00 sec
  Maximum Time Step           :     1.00 sec
  % of Time in Steady State   :     0.00
  Average Iterations per Step :     2.00
  % of Steps Not Converging   :     0.00
  Time Step Frequencies       :
      1.000 -  0.871 sec      :    99.99 %
      0.871 -  0.758 sec      :     0.00 %
      0.758 -  0.660 sec      :     0.00 %
      0.660 -  0.574 sec      :     0.00 %
      0.574 -  0.500 sec      :     0.00 %
  
  
  ***************************
  Subcatchment Runoff Summary
  ***************************
  
  ------------------------------------------------------------------------------------------------------------------------------
                            Total      Total      Total      Total     Imperv       Perv      Total       Total     Peak  Runoff
                           Precip      Runon       Evap      Infil     Runoff     Runoff     Runoff      Runoff   Runoff   Coeff
  Subcatchment                 mm         mm         mm         mm         mm         mm         mm    10^6 ltr      CMS
  ------------------------------------------------------------------------------------------------------------------------------
  EZG_368                   47.29       0.00       0.95      20.64      22.74       6.44      25.77        0.11     0.14   0.545
  EZG_392                   47.29       0.00       0.95      20.51      22.75       6.57      25.90        0.08     0.12   0.548
  EZG_352                   47.29       0.00       0.95      20.84      22.73       6.23      25.55        0.15     0.20   0.540
  EZG_372                   47.29       0.00       0.93      20.10      22.77       7.00      26.35        0.04     0.05   0.557
  EZG_416                   47.29       0.00       0.94      20.46      22.75       6.63      25.96        0.08     0.11   0.549
  EZG_388                   47.29       0.00       0.95      20.70      22.74       6.38      25.71        0.12     0.16   0.544
  EZG_394                   47.29       0.00       0.94      20.43      22.75       6.65      25.99        0.07     0.10   0.550
  EZG_400                   47.29       0.00       0.94      20.40      22.75       6.69      26.03        0.07     0.10   0.550
  EZG_390                   47.29       0.00       0.94      20.50      22.75       6.58      25.92        0.08     0.11   0.548
  EZG_350                   47.29       0.00       0.95      20.70      22.74       6.38      25.70        0.12     0.16   0.544
  EZG_370                   47.29       0.00       0.95      20.57      22.74       6.52      25.85        0.09     0.13   0.547
  EZG_398                   47.29       0.00       0.93      19.97      22.77       7.14      26.49        0.03     0.04   0.560
  EZG_382                   47.29       0.00       0.93      19.92      22.78       7.18      26.54        0.02     0.04   0.561
  EZG_374                   47.29       0.00       1.14      16.75      27.28       6.28      29.46        0.11     0.15   0.623
  EZG_412                   47.29       0.00       0.92      19.62      22.79       7.50      26.88        0.01     0.02   0.568
  EZG_344                   47.29       0.00       0.94      20.39      22.75       6.70      26.04        0.07     0.09   0.551
  EZG_376                   47.29       0.00       0.94      20.27      22.76       6.82      26.16        0.05     0.08   0.553
  EZG_356                   47.29       0.00       0.96      20.89      22.73       6.18      25.50        0.16     0.21   0.539
  EZG_386                   47.29       0.00       0.96      21.03      22.72       6.04      25.36        0.20     0.25   0.536
  EZG_380                   47.29       0.00       0.95      20.61      22.74       6.47      25.80        0.10     0.14   0.546
  EZG_378                   47.29       0.00       0.95      20.54      22.74       6.54      25.87        0.09     0.12   0.547
  EZG_414                   47.29       0.00       0.93      19.91      22.78       7.19      26.55        0.02     0.04   0.561
  EZG_402                   47.29       0.00       0.95      20.51      22.75       6.57      25.90        0.08     0.12   0.548
  EZG_358                   47.29       0.00       0.96      20.88      22.73       6.19      25.51        0.16     0.21   0.539
  EZG_364                   47.29       0.00       0.96      20.89      22.73       6.19      25.51        0.16     0.21   0.539
  EZG_410                   47.29       0.00       0.94      20.30      22.76       6.79      26.13        0.05     0.08   0.553
  EZG_366                   47.29       0.00       0.94      20.36      22.75       6.73      26.07        0.06     0.09   0.551
  EZG_18259                 47.29       0.00       0.94      20.36      22.75       6.73      26.07        0.06     0.09   0.551
  EZG_18258                 47.29       0.00       0.93      19.78      22.78       7.34      26.70        0.02     0.03   0.565
  EZG_346                   47.29       0.00       0.93      20.96      22.29       6.53      25.47        0.09     0.13   0.539
  EZG_348                   47.29       0.00       0.92      20.70      22.30       6.79      25.74        0.06     0.08   0.544
  
  
  ******************
  Node Depth Summary
  ******************
  
  ---------------------------------------------------------------------------------
                                 Average  Maximum  Maximum  Time of Max    Reported
                                   Depth    Depth      HGL   Occurrence   Max Depth
  Node                 Type       Meters   Meters   Meters  days hr:min      Meters
  ---------------------------------------------------------------------------------
  R0019466             JUNCTION     0.01     2.36    71.81     0  03:05        2.25
  R0019468             JUNCTION     0.01     2.35    71.66     0  03:05        2.27
  R0019831             JUNCTION     0.00     1.66    70.83     0  03:03        1.66
  R0019825             JUNCTION     0.01     1.50    70.34     0  03:02        1.50
  R0019843             JUNCTION     0.01     1.58    69.21     0  03:04        1.34
  R0019368             JUNCTION     0.01     1.74    68.53     0  03:04        1.46
  R0019369             JUNCTION     0.01     0.85    67.44     0  03:06        0.85
  R0019370             JUNCTION     0.01     0.63    66.53     0  03:06        0.63
  R0019345             JUNCTION     0.01     1.33    71.23     0  03:05        1.31
  R0019346             JUNCTION     0.00     1.15    70.95     0  03:05        1.11
  R0043600             JUNCTION     0.01     0.83    70.50     0  03:05        0.82
  R0019203             JUNCTION     0.01     0.83    70.37     0  03:05        0.81
  R0043594             JUNCTION     0.00     0.61    70.34     0  03:06        0.61
  R0021458             JUNCTION     0.01     0.70    70.35     0  03:06        0.65
  R0019202             JUNCTION     0.00     0.81    70.39     0  03:06        0.79
  R0019373             JUNCTION     0.00     1.93    71.60     0  03:05        1.81
  R0019254             JUNCTION     0.01     2.03    72.07     0  03:05        2.03
  R0019716             JUNCTION     0.01     1.14    70.15     0  03:05        0.99
  R0019946             JUNCTION     0.01     1.30    69.92     0  03:05        1.17
  R0013935             JUNCTION     0.00     1.62    70.45     0  03:04        1.62
  R0019939             JUNCTION     0.01     1.67    70.24     0  03:05        1.62
  R0019944             JUNCTION     0.01     1.12    69.40     0  03:05        0.97
  R0043703             JUNCTION     0.01     1.15    69.75     0  03:05        0.92
  R0019945             JUNCTION     0.01     1.08    69.48     0  03:05        0.96
  R0039621             JUNCTION     0.00     1.56    71.13     0  03:04        1.56
  R0019838             JUNCTION     0.00     1.80    71.26     0  03:04        1.80
  R0039606             JUNCTION     0.00     0.81    70.40     0  03:06        0.79
  R0019204             JUNCTION     0.00     0.00    69.91     0  00:00        0.00
  R0019205             JUNCTION     0.00     0.00    69.62     0  00:00        0.00
  R0019849             JUNCTION     0.01     1.46    69.98     0  03:05        1.39
  R0019371             JUNCTION     0.00     0.00    70.41     0  00:00        0.00
  R0019718             JUNCTION     0.01     0.96    70.38     0  03:05        0.87
  R0021442             JUNCTION     0.01     2.05    72.10     0  03:02        2.05
  R0019247             JUNCTION     0.01     1.24    71.12     0  03:05        1.23
  R0019719             JUNCTION     0.00     0.92    70.60     0  03:05        0.87
  R0019767             JUNCTION     0.01     0.67    65.40     0  03:06        0.67
  R0019768             JUNCTION     0.01     0.55    64.32     0  03:06        0.55
  R0021453             JUNCTION     0.00     0.43    70.38     0  03:07        0.39
  R0019839             JUNCTION     0.00     1.83    71.22     0  03:04        1.79
  R0019717             JUNCTION     0.01     0.91    70.25     0  03:05        0.86
  R0019252             JUNCTION     0.00     1.94    72.13     0  03:03        1.94
  R0019721             JUNCTION     0.00     1.24    71.11     0  03:05        1.21
  R0019942             JUNCTION     0.00     1.41    70.06     0  03:05        1.35
  R0019206             JUNCTION     0.00     0.04    69.11     0  03:04        0.01
  R0019840             JUNCTION     0.00     1.84    70.81     0  03:05        1.79
  R0043702             JUNCTION     0.01     2.01    70.71     0  03:05        1.96
  R0019723             JUNCTION     0.00     1.16    71.24     0  03:05        1.15
  R0019724             JUNCTION     0.00     1.11    71.27     0  03:05        1.08
  R0021433             JUNCTION     0.01     2.15    72.54     0  03:02        2.15
  R0021435             JUNCTION     0.01     2.11    72.29     0  03:02        2.11
  R0019769             OUTFALL      0.01     0.55    63.93     0  03:06        0.55
  
  
  *******************
  Node Inflow Summary
  *******************
  
  -------------------------------------------------------------------------------------------------
                                  Maximum  Maximum                  Lateral       Total        Flow
                                  Lateral    Total  Time of Max      Inflow      Inflow     Balance
                                   Inflow   Inflow   Occurrence      Volume      Volume       Error
  Node                 Type           CMS      CMS  days hr:min    10^6 ltr    10^6 ltr     Percent
  -------------------------------------------------------------------------------------------------
  R0019466             JUNCTION     0.144    0.144     0  03:05       0.106       0.163       0.044
  R0019468             JUNCTION     0.090    0.164     0  03:04      0.0624       0.212      -0.022
  R0019831             JUNCTION     0.117    0.117     0  03:05      0.0839      0.0839       0.112
  R0019825             JUNCTION     0.117    0.218     0  03:05      0.0842       0.167       0.112
  R0019843             JUNCTION     0.000    2.418     0  03:04           0        2.55      -0.031
  R0019368             JUNCTION     0.000    2.383     0  03:05           0        2.55      -0.034
  R0019369             JUNCTION     0.000    2.388     0  03:05           0        2.55      -0.016
  R0019370             JUNCTION     0.000    2.376     0  03:05           0        2.55       0.001
  R0019345             JUNCTION     0.000    0.160     0  03:03           0       0.155       0.022
  R0019346             JUNCTION     0.018    0.303     0  03:05      0.0107       0.267       0.008
  R0043600             JUNCTION     0.000    0.218     0  03:04           0       0.276      -0.100
  R0019203             JUNCTION     0.038    0.743     0  03:05      0.0235        0.72      -0.020
  R0043594             JUNCTION     0.195    0.281     0  03:05       0.151       0.217      -0.022
  R0021458             JUNCTION     0.158    0.366     0  03:05       0.118       0.335      -0.007
  R0019202             JUNCTION     0.055    0.513     0  03:05      0.0357       0.419      -0.299
  R0019373             JUNCTION     0.128    0.195     0  03:05      0.0927       0.106       1.030
  R0019254             JUNCTION     0.107    0.168     0  03:03      0.0756       0.155       0.029
  R0019716             JUNCTION     0.157    1.538     0  03:04       0.117        1.46      -0.007
  R0019946             JUNCTION     0.000    1.473     0  03:05           0        1.46       0.000
  R0013935             JUNCTION     0.102    0.102     0  03:05      0.0721      0.0721       0.066
  R0019939             JUNCTION     0.042    0.124     0  03:04      0.0262      0.0966      -0.073
  R0019944             JUNCTION     0.096    1.764     0  03:04       0.067        1.85       0.022
  R0043703             JUNCTION     0.115    1.594     0  03:05       0.082        1.55      -0.011
  R0019945             JUNCTION     0.000    1.698     0  03:05           0        1.79      -0.003
  R0039621             JUNCTION     0.000    0.103     0  03:05           0     0.00703      -2.582
  R0019838             JUNCTION     0.209    0.212     0  03:04       0.163       0.168      -0.058
  R0039606             JUNCTION     0.000    0.383     0  03:08           0       0.335       0.045
  R0019204             JUNCTION     0.000    0.000     0  00:00           0           0       0.000 ltr
  R0019205             JUNCTION     0.000    0.000     0  00:00           0           0       0.000 ltr
  R0019849             JUNCTION     0.000    0.216     0  03:04           0       0.242      -0.001
  R0019371             JUNCTION     0.000    0.000     0  00:00           0           0       0.000 ltr
  R0019718             JUNCTION     0.137    0.837     0  03:05         0.1        0.82      -0.438
  R0021442             JUNCTION     0.151    0.224     0  03:05       0.112       0.236       0.019
  R0019247             JUNCTION     0.077    0.220     0  03:05      0.0522       0.276       0.114
  R0019719             JUNCTION     0.080    0.379     0  03:05      0.0549       0.322       0.557
  R0019767             JUNCTION     0.000    2.358     0  03:06           0        2.55      -0.003
  R0019768             JUNCTION     0.000    2.352     0  03:06           0        2.55       0.005
  R0021453             JUNCTION     0.094    0.094     0  03:05      0.0659      0.0661      -0.037
  R0019839             JUNCTION     0.207    0.381     0  03:04       0.161       0.322       0.054
  R0019717             JUNCTION     0.252    1.438     0  03:05       0.202        1.35       0.065
  R0019252             JUNCTION     0.123    0.123     0  03:05      0.0887      0.0887      -0.017
  R0019721             JUNCTION     0.037    0.147     0  03:05      0.0231       0.102       0.096
  R0019942             JUNCTION     0.000    0.124     0  03:02           0       0.144      -0.231
  R0019206             JUNCTION     0.000    0.032     0  03:04           0    0.000147      10.897
  R0019840             JUNCTION     0.000    0.494     0  03:04           0       0.534      -0.019
  R0043702             JUNCTION     0.207    0.685     0  03:05       0.162       0.695       0.359
  R0019723             JUNCTION     0.089    0.113     0  03:04      0.0619      0.0785      -0.147
  R0019724             JUNCTION     0.027    0.036     0  03:03      0.0163      0.0165      -0.361
  R0021433             JUNCTION     0.127    0.127     0  03:05      0.0927      0.0927      -0.079
  R0021435             JUNCTION     0.083    0.155     0  03:05      0.0573       0.142      -0.080
  R0019769             OUTFALL      0.000    2.355     0  03:06           0        2.55       0.000
  
  
  **********************
  Node Surcharge Summary
  **********************
  
  Surcharging occurs when water rises above the top of the highest conduit.
  ---------------------------------------------------------------------
                                               Max. Height   Min. Depth
                                   Hours       Above Crown    Below Rim
  Node                 Type      Surcharged         Meters       Meters
  ---------------------------------------------------------------------
  R0019466             JUNCTION        0.20          2.058        0.452
  R0019468             JUNCTION        0.20          2.045        0.385
  R0019831             JUNCTION        0.14          1.360        0.000
  R0019825             JUNCTION        0.18          1.200        0.000
  R0019843             JUNCTION        0.07          0.681        1.939
  R0019368             JUNCTION        0.10          0.839        0.211
  R0019345             JUNCTION        0.13          1.034        0.716
  R0019346             JUNCTION        0.10          0.752        0.988
  R0043600             JUNCTION        0.12          0.430        2.150
  R0019373             JUNCTION        0.14          1.635        0.865
  R0019254             JUNCTION        0.15          1.732        0.098
  R0019716             JUNCTION        0.03          0.241        1.479
  R0019946             JUNCTION        0.07          0.400        1.120
  R0013935             JUNCTION        0.15          1.320        0.000
  R0019939             JUNCTION        0.20          1.368        0.252
  R0019944             JUNCTION        0.02          0.215        1.315
  R0043703             JUNCTION        0.02          0.248        1.072
  R0019945             JUNCTION        0.02          0.184        1.276
  R0039621             JUNCTION        0.05          1.060        0.000
  R0019838             JUNCTION        0.06          1.300        0.000
  R0019849             JUNCTION        0.22          1.165        0.765
  R0019718             JUNCTION        0.01          0.060        1.940
  R0021442             JUNCTION        0.22          1.750        0.000
  R0019247             JUNCTION        0.14          0.839        1.021
  R0019719             JUNCTION        0.07          0.419        1.381
  R0019839             JUNCTION        0.06          1.330        0.320
  R0019252             JUNCTION        0.13          1.640        0.000
  R0019721             JUNCTION        0.09          0.838        0.722
  R0019942             JUNCTION        0.18          1.106        0.544
  R0019840             JUNCTION        0.08          1.335        1.235
  R0043702             JUNCTION        0.10          1.507        1.403
  R0019723             JUNCTION        0.07          0.758        0.562
  R0019724             JUNCTION        0.07          0.807        0.643
  R0021433             JUNCTION        0.17          1.850        0.000
  R0021435             JUNCTION        0.19          1.810        0.000
  
  
  *********************
  Node Flooding Summary
  *********************
  
  Flooding refers to all water that overflows a node, whether it ponds or not.
  --------------------------------------------------------------------------
                                                             Total   Maximum
                                 Maximum   Time of Max       Flood    Ponded
                        Hours       Rate    Occurrence      Volume     Depth
  Node                 Flooded       CMS   days hr:min    10^6 ltr    Meters
  --------------------------------------------------------------------------
  R0019831                0.03     0.016      0  03:05       0.001     0.000
  R0019825                0.08     0.126      0  03:05       0.022     0.000
  R0013935                0.03     0.025      0  03:05       0.002     0.000
  R0039621                0.02     0.103      0  03:05       0.003     0.000
  R0019838                0.01     0.039      0  03:04       0.000     0.000
  R0021442                0.07     0.081      0  03:05       0.012     0.000
  R0019252                0.05     0.083      0  03:05       0.009     0.000
  R0021433                0.07     0.056      0  03:05       0.008     0.000
  R0021435                0.09     0.083      0  03:05       0.018     0.000
  
  
  ***********************
  Outfall Loading Summary
  ***********************
  
  -----------------------------------------------------------
                         Flow       Avg       Max       Total
                         Freq      Flow      Flow      Volume
  Outfall Node           Pcnt       CMS       CMS    10^6 ltr
  -----------------------------------------------------------
  R0019769               7.07     0.132     2.355       2.548
  -----------------------------------------------------------
  System                 7.07     0.132     2.355       2.548
  
  
  ********************
  Link Flow Summary
  ********************
  
  -----------------------------------------------------------------------------
                                 Maximum  Time of Max   Maximum    Max/    Max/
                                  |Flow|   Occurrence   |Veloc|    Full    Full
  Link                 Type          CMS  days hr:min     m/sec    Flow   Depth
  -----------------------------------------------------------------------------
  H0014431             CONDUIT     0.084     0  03:03      1.18    1.55    1.00
  H0014433             CONDUIT     0.100     0  03:05      1.42    1.28    1.00
  H0014352             CONDUIT     2.383     0  03:05      3.75    0.98    1.00
  H0014373             CONDUIT     2.376     0  03:05      4.30    1.10    0.82
  H0017981             CONDUIT     0.159     0  03:03      2.24    4.49    1.00
  H0017755             CONDUIT     0.217     0  03:05      1.72    1.76    1.00
  H0017791             CONDUIT     0.274     0  03:07      0.72    0.40    0.71
  H0017357             CONDUIT     0.189     0  03:05      2.67    3.02    1.00
  H0018216             CONDUIT     0.160     0  03:03      2.27    2.92    1.00
  H0016792             CONDUIT     1.473     0  03:05      2.32    0.85    1.00
  H0019507             CONDUIT     0.085     0  03:04      1.21    1.19    1.00
  H0019998             CONDUIT     1.815     0  03:04      3.48    0.73    1.00
  H0019576             CONDUIT     1.499     0  03:05      2.61    1.01    1.00
  H0020087             CONDUIT     0.103     0  03:05      0.52    0.45    1.00
  H0020211             CONDUIT     1.487     0  03:05      2.34    3.71    1.00
  H0018982             CONDUIT     0.383     0  03:08      0.93    0.62    0.81
  H0018753             CONDUIT     0.074     0  03:05      1.04    1.04    1.00
  H0018845             CONDUIT     0.000     0  00:00      0.00    0.00    0.00
  H0018863             CONDUIT     0.120     0  03:04      1.70    2.82    1.00
  H0019156             CONDUIT     0.000     0  00:00      0.00    0.00    0.00
  H0018929             CONDUIT     0.712     0  03:05      1.47    0.62    0.97
  H0018440             CONDUIT     0.159     0  03:02      2.25    2.85    1.00
  H0018456             CONDUIT     0.301     0  03:05      2.40    1.83    1.00
  H0018968             CONDUIT     2.352     0  03:06      5.12    0.90    0.68
  H0022036             CONDUIT     0.115     0  03:07      0.55    0.09    0.55
  H0021806             CONDUIT     0.218     0  03:04      1.73    1.93    1.00
  H0022111             CONDUIT     0.179     0  03:04      0.91    1.28    1.00
  H0021440             CONDUIT     1.383     0  03:04      2.54    0.89    1.00
  H0021704             CONDUIT     0.826     0  03:06      1.74    1.57    1.00
  H0020521             CONDUIT     0.082     0  03:03      1.16    1.65    1.00
  H0020755             CONDUIT     0.144     0  03:05      1.15    1.59    1.00
  H0020530             CONDUIT     2.388     0  03:05      3.75    2.04    1.00
  H0020618             CONDUIT     1.688     0  03:07      3.35    1.05    1.00
  H0021163             CONDUIT     0.124     0  03:02      1.75    2.07    1.00
  H0020497             CONDUIT     0.032     0  03:04      0.45    0.07    1.00
  H0024325             CONDUIT     0.348     0  03:04      1.87    1.04    1.00
  H0023585             CONDUIT     0.676     0  03:05      3.44    1.55    1.00
  H0024098             CONDUIT     0.212     0  03:03      3.00    2.48    1.00
  H0024235             CONDUIT     0.377     0  03:05      1.92    1.55    1.00
  H0024282             CONDUIT     0.000     0  00:00      0.00    0.00    0.07
  H0024308             CONDUIT     2.355     0  03:06      5.78    0.69    0.61
  H0024498             CONDUIT     0.158     0  03:03      2.23    2.44    1.00
  H0026990             CONDUIT     0.110     0  03:05      0.88    0.83    1.00
  H0041650             CONDUIT     0.504     0  03:05      1.12    0.59    0.89
  H0041011             CONDUIT     0.117     0  03:02      1.65    1.15    1.00
  H0045103             CONDUIT     0.418     0  03:08      1.01    0.52    0.90
  H0045104             CONDUIT     2.358     0  03:06      4.80    0.84    0.72
  H0045105             CONDUIT     0.027     0  03:05      0.45    0.48    1.00
  H0045106             CONDUIT     0.479     0  03:04      2.44    0.64    1.00
  H0045107             CONDUIT     0.072     0  03:06      1.01    1.18    1.00
  H0045108             CONDUIT     0.089     0  03:08      1.26    1.61    1.00
  
  
  ***************************
  Flow Classification Summary
  ***************************
  
  -------------------------------------------------------------------------------------
                      Adjusted    ---------- Fraction of Time in Flow Class ---------- 
                       /Actual         Up    Down  Sub   Sup   Up    Down  Norm  Inlet 
  Conduit               Length    Dry  Dry   Dry   Crit  Crit  Crit  Crit  Ltd   Ctrl  
  -------------------------------------------------------------------------------------
  H0014431                1.00   0.03  0.90  0.00  0.07  0.00  0.00  0.00  0.96  0.00
  H0014433                1.00   0.03  0.00  0.00  0.97  0.00  0.00  0.00  0.97  0.00
  H0014352                1.00   0.03  0.00  0.00  0.92  0.05  0.00  0.00  0.97  0.00
  H0014373                1.00   0.03  0.00  0.00  0.91  0.06  0.00  0.00  0.89  0.00
  H0017981                1.00   0.03  0.00  0.00  0.00  0.00  0.00  0.97  0.00  0.00
  H0017755                1.00   0.03  0.00  0.00  0.00  0.00  0.00  0.97  0.00  0.00
  H0017791                1.00   0.03  0.00  0.00  0.97  0.00  0.00  0.00  0.96  0.00
  H0017357                1.00   0.03  0.97  0.00  0.00  0.00  0.00  0.00  0.96  0.00
  H0018216                1.00   0.03  0.90  0.00  0.07  0.00  0.00  0.00  0.97  0.00
  H0016792                1.00   0.03  0.89  0.00  0.08  0.00  0.00  0.00  0.96  0.00
  H0019507                1.00   0.03  0.00  0.00  0.97  0.00  0.00  0.00  0.97  0.00
  H0019998                1.00   0.03  0.00  0.00  0.91  0.06  0.00  0.00  0.08  0.00
  H0019576                1.00   0.03  0.00  0.00  0.93  0.04  0.00  0.00  0.07  0.00
  H0020087                1.00   0.03  0.95  0.00  0.02  0.00  0.00  0.00  0.96  0.00
  H0020211                1.00   0.03  0.00  0.00  0.97  0.00  0.00  0.00  0.89  0.00
  H0018982                1.00   0.03  0.00  0.00  0.97  0.00  0.00  0.00  0.91  0.00
  H0018753                1.00   0.03  0.00  0.00  0.97  0.00  0.00  0.00  0.97  0.00
  H0018845                1.00   1.00  0.00  0.00  0.00  0.00  0.00  0.00  0.00  0.00
  H0018863                1.00   0.03  0.00  0.00  0.97  0.00  0.00  0.00  0.96  0.00
  H0019156                1.00   1.00  0.00  0.00  0.00  0.00  0.00  0.00  0.00  0.00
  H0018929                1.00   0.03  0.90  0.00  0.07  0.00  0.00  0.00  0.97  0.00
  H0018440                1.00   0.03  0.00  0.00  0.97  0.00  0.00  0.00  0.96  0.00
  H0018456                1.00   0.03  0.00  0.00  0.97  0.00  0.00  0.00  0.96  0.00
  H0018968                1.00   0.03  0.00  0.00  0.90  0.07  0.00  0.00  0.91  0.00
  H0022036                1.00   0.03  0.00  0.00  0.04  0.00  0.00  0.93  0.03  0.00
  H0021806                1.00   0.03  0.90  0.00  0.07  0.00  0.00  0.00  0.93  0.00
  H0022111                1.00   0.03  0.00  0.00  0.97  0.00  0.00  0.00  0.00  0.00
  H0021440                1.00   0.03  0.00  0.00  0.92  0.05  0.00  0.00  0.02  0.00
  H0021704                1.00   0.03  0.00  0.00  0.00  0.00  0.00  0.97  0.00  0.00
  H0020521                1.00   0.03  0.00  0.00  0.97  0.00  0.00  0.00  0.97  0.00
  H0020755                1.00   0.03  0.90  0.00  0.07  0.00  0.00  0.00  0.97  0.00
  H0020530                1.00   0.03  0.00  0.00  0.93  0.05  0.00  0.00  0.01  0.00
  H0020618                1.00   0.03  0.00  0.00  0.91  0.06  0.00  0.00  0.92  0.00
  H0021163                1.00   0.03  0.00  0.00  0.96  0.01  0.00  0.00  0.91  0.00
  H0020497                1.20   0.03  0.97  0.00  0.00  0.00  0.00  0.00  0.96  0.00
  H0024325                1.00   0.03  0.00  0.00  0.92  0.05  0.00  0.00  0.91  0.00
  H0023585                1.00   0.03  0.00  0.00  0.00  0.00  0.00  0.97  0.00  0.00
  H0024098                1.00   0.03  0.90  0.00  0.07  0.00  0.00  0.00  0.96  0.00
  H0024235                1.00   0.03  0.00  0.00  0.00  0.00  0.00  0.97  0.00  0.00
  H0024282                1.00   1.00  0.00  0.00  0.00  0.00  0.00  0.00  0.00  0.00
  H0024308                1.00   0.03  0.00  0.00  0.89  0.08  0.00  0.00  0.01  0.00
  H0024498                1.00   0.03  0.00  0.00  0.00  0.00  0.00  0.97  0.00  0.00
  H0026990                1.00   0.03  0.00  0.00  0.97  0.00  0.00  0.00  0.97  0.00
  H0041650                1.00   0.93  0.01  0.00  0.06  0.00  0.00  0.00  0.95  0.00
  H0041011                1.00   0.03  0.00  0.00  0.97  0.00  0.00  0.00  0.96  0.00
  H0045103                1.00   0.03  0.00  0.00  0.97  0.00  0.00  0.00  0.92  0.00
  H0045104                1.00   0.03  0.00  0.00  0.90  0.07  0.00  0.00  0.08  0.00
  H0045105                1.00   0.03  0.00  0.00  0.97  0.00  0.00  0.00  0.97  0.00
  H0045106                1.00   0.03  0.90  0.00  0.02  0.05  0.00  0.00  0.97  0.00
  H0045107                1.00   0.03  0.00  0.00  0.97  0.00  0.00  0.00  0.97  0.00
  H0045108                1.00   0.03  0.00  0.00  0.97  0.00  0.00  0.00  0.97  0.00
  
  
  *************************
  Conduit Surcharge Summary
  *************************
  
  ----------------------------------------------------------------------------
                                                           Hours        Hours 
                         --------- Hours Full --------   Above Full   Capacity
  Conduit                Both Ends  Upstream  Dnstream   Normal Flow   Limited
  ----------------------------------------------------------------------------
  H0014431                    0.20      0.20      0.20      0.21         0.17
  H0014433                    0.14      0.14      0.18      0.06         0.05
  H0014352                    0.07      0.07      0.10      0.01         0.01
  H0014373                    0.01      0.01      0.01      0.06         0.01
  H0017981                    0.10      0.13      0.10      0.26         0.12
  H0017755                    0.11      0.12      0.11      0.15         0.12
  H0017357                    0.08      0.08      0.14      0.09         0.01
  H0018216                    0.13      0.15      0.13      0.17         0.14
  H0016792                    0.03      0.03      0.07      0.01         0.01
  H0019507                    0.15      0.15      0.20      0.04         0.03
  H0019998                    0.02      0.02      0.07      0.01         0.01
  H0019576                    0.02      0.02      0.02      0.01         0.01
  H0020087                    0.05      0.05      0.06      0.01         0.01
  H0020211                    0.02      0.07      0.02      0.21         0.04
  H0018753                    0.14      0.14      0.20      0.01         0.01
  H0018863                    0.20      0.20      0.22      0.13         0.12
  H0018929                    0.01      0.01      0.01      0.01         0.01
  H0018440                    0.17      0.22      0.17      0.27         0.20
  H0018456                    0.09      0.10      0.09      0.12         0.10
  H0021806                    0.12      0.14      0.12      0.16         0.13
  H0022111                    0.06      0.06      0.06      0.04         0.03
  H0021440                    0.01      0.01      0.03      0.01         0.01
  H0021704                    0.01      0.01      0.01      0.12         0.01
  H0020521                    0.13      0.13      0.15      0.09         0.08
  H0020755                    0.09      0.09      0.10      0.05         0.05
  H0020530                    0.01      0.10      0.01      0.15         0.09
  H0020618                    0.02      0.02      0.02      0.05         0.01
  H0021163                    0.17      0.18      0.18      0.17         0.15
  H0020497                    0.01      0.01     72.92      0.01         0.01
  H0024325                    0.06      0.06      0.08      0.01         0.01
  H0023585                    0.08      0.10      0.08      0.11         0.10
  H0024098                    0.22      0.22      0.26      0.18         0.17
  H0024235                    0.06      0.07      0.06      0.08         0.06
  H0024498                    0.09      0.20      0.09      0.23         0.16
  H0026990                    0.07      0.07      0.09      0.01         0.01
  H0041011                    0.18      0.18      0.22      0.04         0.03
  H0045105                    0.07      0.07      0.08      0.01         0.01
  H0045106                    0.08      0.08      0.10      0.01         0.01
  H0045107                    0.17      0.17      0.19      0.08         0.08
  H0045108                    0.19      0.19      0.22      0.15         0.15
  

  Analysis begun on:  Fri Mar 22 15:55:57 2024
  Analysis ended on:  Fri Mar 22 15:56:08 2024
  Total elapsed time: 00:00:11