
  EPA STORM WATER MANAGEMENT MODEL - VERSION 5.2 (Build 5.2.4)
  PYSWMM TOOLKIT API - VERSION v1.0 (2023-11-27)
  ------------------------------------------------------------

  Gievenbeck_e2_T50D45 
  
  ****************
  Analysis Options
  ****************
  Flow Units ............... CMS
  Process Models:
    Rainfall/Runoff ........ YES
    RDII ................... NO
    Snowmelt ............... NO
    Groundwater ............ NO
    Flow Routing ........... YES
    Ponding Allowed ........ NO
    Water Quality .......... NO
  Infiltration Method ...... HORTON
  Flow Routing Method ...... DYNWAVE
  Surcharge Method ......... SLOT
  Starting Date ............ 01/01/2024 00:00:00
  Ending Date .............. 01/04/2024 04:00:00
  Antecedent Dry Days ...... 14.0
  Report Time Step ......... 00:01:00
  Wet Time Step ............ 00:01:00
  Dry Time Step ............ 00:01:00
  Routing Time Step ........ 1.00 sec
  Variable Time Step ....... YES
  Maximum Trials ........... 8
  Number of Threads ........ 1
  Head Tolerance ........... 0.001500 m
  
  
  **************************        Volume         Depth
  Runoff Quantity Continuity     hectare-m            mm
  **************************     ---------       -------
  Total Precipitation ......         0.370        36.510
  Evaporation Loss .........         0.010         0.968
  Infiltration Loss ........         0.147        14.553
  Surface Runoff ...........         0.213        21.067
  Final Storage ............         0.000         0.000
  Continuity Error (%) .....        -0.216
  
  
  **************************        Volume        Volume
  Flow Routing Continuity        hectare-m      10^6 ltr
  **************************     ---------     ---------
  Dry Weather Inflow .......         0.000         0.000
  Wet Weather Inflow .......         0.213         2.133
  Groundwater Inflow .......         0.000         0.000
  RDII Inflow ..............         0.000         0.000
  External Inflow ..........         0.000         0.000
  External Outflow .........         0.205         2.055
  Flooding Loss ............         0.008         0.081
  Evaporation Loss .........         0.000         0.000
  Exfiltration Loss ........         0.000         0.000
  Initial Stored Volume ....         0.000         0.000
  Final Stored Volume ......         0.000         0.000
  Continuity Error (%) .....        -0.146
  
  
  *************************
  Highest Continuity Errors
  *************************
  Node R0019206 (7.46%)
  Node R0019373 (1.22%)
  Node R0019718 (-1.19%)
  
  
  ***************************
  Time-Step Critical Elements
  ***************************
  None
  
  
  ********************************
  Highest Flow Instability Indexes
  ********************************
  All links are stable.
  
  
  *********************************
  Most Frequent Nonconverging Nodes
  *********************************
  Convergence obtained at all time steps.
  
  
  *************************
  Routing Time Step Summary
  *************************
  Minimum Time Step           :     0.50 sec
  Average Time Step           :     1.00 sec
  Maximum Time Step           :     1.00 sec
  % of Time in Steady State   :     0.00
  Average Iterations per Step :     2.00
  % of Steps Not Converging   :     0.00
  Time Step Frequencies       :
      1.000 -  0.871 sec      :    99.99 %
      0.871 -  0.758 sec      :     0.00 %
      0.758 -  0.660 sec      :     0.00 %
      0.660 -  0.574 sec      :     0.00 %
      0.574 -  0.500 sec      :     0.00 %
  
  
  ***************************
  Subcatchment Runoff Summary
  ***************************
  
  ------------------------------------------------------------------------------------------------------------------------------
                            Total      Total      Total      Total     Imperv       Perv      Total       Total     Peak  Runoff
                           Precip      Runon       Evap      Infil     Runoff     Runoff     Runoff      Runoff   Runoff   Coeff
  Subcatchment                 mm         mm         mm         mm         mm         mm         mm    10^6 ltr      CMS
  ------------------------------------------------------------------------------------------------------------------------------
  EZG_368                   36.51       0.00       0.96      14.66      17.36       6.21      20.96        0.09     0.15   0.574
  EZG_392                   36.51       0.00       0.96      14.53      17.36       6.34      21.10        0.07     0.12   0.578
  EZG_352                   36.51       0.00       0.97      14.88      17.35       5.99      20.73        0.12     0.20   0.568
  EZG_372                   36.51       0.00       0.95      14.14      17.39       6.75      21.52        0.03     0.06   0.590
  EZG_416                   36.51       0.00       0.96      14.48      17.37       6.40      21.16        0.06     0.11   0.580
  EZG_388                   36.51       0.00       0.96      14.72      17.35       6.15      20.90        0.10     0.16   0.572
  EZG_394                   36.51       0.00       0.96      14.45      17.37       6.43      21.19        0.06     0.10   0.580
  EZG_400                   36.51       0.00       0.95      14.42      17.37       6.46      21.23        0.05     0.10   0.581
  EZG_390                   36.51       0.00       0.96      14.52      17.36       6.36      21.12        0.07     0.12   0.578
  EZG_350                   36.51       0.00       0.96      14.72      17.35       6.15      20.90        0.10     0.16   0.572
  EZG_370                   36.51       0.00       0.96      14.58      17.36       6.29      21.05        0.08     0.13   0.576
  EZG_398                   36.51       0.00       0.94      14.04      17.39       6.86      21.64        0.02     0.04   0.593
  EZG_382                   36.51       0.00       0.94      14.00      17.40       6.90      21.68        0.02     0.04   0.594
  EZG_374                   36.51       0.00       1.16      11.69      20.82       6.05      23.75        0.09     0.16   0.651
  EZG_412                   36.51       0.00       0.93      13.81      17.41       7.11      21.92        0.01     0.02   0.600
  EZG_344                   36.51       0.00       0.95      14.41      17.37       6.47      21.24        0.05     0.10   0.582
  EZG_376                   36.51       0.00       0.95      14.30      17.38       6.58      21.35        0.04     0.08   0.585
  EZG_356                   36.51       0.00       0.97      14.93      17.34       5.94      20.68        0.13     0.21   0.566
  EZG_386                   36.51       0.00       0.98      15.07      17.34       5.79      20.52        0.16     0.26   0.562
  EZG_380                   36.51       0.00       0.96      14.63      17.36       6.24      21.00        0.08     0.14   0.575
  EZG_378                   36.51       0.00       0.96      14.56      17.36       6.31      21.07        0.07     0.12   0.577
  EZG_414                   36.51       0.00       0.94      14.00      17.40       6.90      21.69        0.02     0.04   0.594
  EZG_402                   36.51       0.00       0.96      14.53      17.36       6.34      21.10        0.07     0.12   0.578
  EZG_358                   36.51       0.00       0.97      14.92      17.35       5.94      20.69        0.13     0.21   0.567
  EZG_364                   36.51       0.00       0.97      14.92      17.35       5.94      20.69        0.13     0.21   0.567
  EZG_410                   36.51       0.00       0.95      14.32      17.38       6.56      21.33        0.04     0.08   0.584
  EZG_366                   36.51       0.00       0.95      14.38      17.37       6.50      21.26        0.05     0.09   0.582
  EZG_18259                 36.51       0.00       0.95      14.38      17.37       6.50      21.27        0.05     0.09   0.583
  EZG_18258                 36.51       0.00       0.94      13.90      17.40       7.01      21.80        0.01     0.03   0.597
  EZG_346                   36.51       0.00       0.94      14.89      17.01       6.30      20.76        0.08     0.13   0.569
  EZG_348                   36.51       0.00       0.93      14.64      17.03       6.56      21.03        0.05     0.08   0.576
  
  
  ******************
  Node Depth Summary
  ******************
  
  ---------------------------------------------------------------------------------
                                 Average  Maximum  Maximum  Time of Max    Reported
                                   Depth    Depth      HGL   Occurrence   Max Depth
  Node                 Type       Meters   Meters   Meters  days hr:min      Meters
  ---------------------------------------------------------------------------------
  R0019466             JUNCTION     0.00     2.44    71.89     0  02:20        2.34
  R0019468             JUNCTION     0.00     2.42    71.73     0  02:20        2.35
  R0019831             JUNCTION     0.00     1.66    70.83     0  02:18        1.66
  R0019825             JUNCTION     0.00     1.50    70.34     0  02:17        1.50
  R0019843             JUNCTION     0.00     1.62    69.25     0  02:19        1.39
  R0019368             JUNCTION     0.01     1.76    68.55     0  02:19        1.51
  R0019369             JUNCTION     0.00     0.85    67.44     0  02:20        0.85
  R0019370             JUNCTION     0.00     0.64    66.54     0  02:20        0.64
  R0019345             JUNCTION     0.00     1.36    71.26     0  02:20        1.32
  R0019346             JUNCTION     0.00     1.18    70.98     0  02:20        1.13
  R0043600             JUNCTION     0.00     0.87    70.54     0  02:21        0.79
  R0019203             JUNCTION     0.00     0.86    70.40     0  02:21        0.83
  R0043594             JUNCTION     0.00     0.65    70.38     0  02:21        0.65
  R0021458             JUNCTION     0.00     0.74    70.39     0  02:21        0.68
  R0019202             JUNCTION     0.00     0.85    70.43     0  02:20        0.85
  R0019373             JUNCTION     0.00     2.01    71.68     0  02:20        1.89
  R0019254             JUNCTION     0.00     2.04    72.08     0  02:20        2.04
  R0019716             JUNCTION     0.00     1.17    70.18     0  02:20        1.00
  R0019946             JUNCTION     0.01     1.33    69.95     0  02:20        1.17
  R0013935             JUNCTION     0.00     1.62    70.45     0  02:19        1.62
  R0019939             JUNCTION     0.00     1.68    70.25     0  02:20        1.62
  R0019944             JUNCTION     0.00     1.14    69.42     0  02:20        0.95
  R0043703             JUNCTION     0.00     1.18    69.78     0  02:20        0.99
  R0019945             JUNCTION     0.00     1.11    69.51     0  02:20        0.96
  R0039621             JUNCTION     0.00     1.56    71.13     0  02:19        1.56
  R0019838             JUNCTION     0.00     1.80    71.26     0  02:19        1.78
  R0039606             JUNCTION     0.00     0.85    70.44     0  02:20        0.85
  R0019204             JUNCTION     0.00     0.00    69.91     0  00:00        0.00
  R0019205             JUNCTION     0.00     0.00    69.62     0  00:00        0.00
  R0019849             JUNCTION     0.00     1.48    70.00     0  02:20        1.40
  R0019371             JUNCTION     0.00     0.00    70.41     0  00:00        0.00
  R0019718             JUNCTION     0.00     0.99    70.41     0  02:20        0.89
  R0021442             JUNCTION     0.01     2.05    72.10     0  02:17        2.05
  R0019247             JUNCTION     0.00     1.25    71.13     0  02:20        1.24
  R0019719             JUNCTION     0.00     0.96    70.64     0  02:20        0.86
  R0019767             JUNCTION     0.00     0.67    65.40     0  02:21        0.67
  R0019768             JUNCTION     0.00     0.55    64.32     0  02:21        0.55
  R0021453             JUNCTION     0.00     0.50    70.45     0  02:22        0.48
  R0019839             JUNCTION     0.00     1.85    71.24     0  02:19        1.80
  R0019717             JUNCTION     0.00     0.95    70.29     0  02:20        0.86
  R0019252             JUNCTION     0.00     1.94    72.13     0  02:18        1.94
  R0019721             JUNCTION     0.00     1.26    71.13     0  02:20        1.23
  R0019942             JUNCTION     0.00     1.42    70.07     0  02:20        1.35
  R0019206             JUNCTION     0.00     0.05    69.12     0  02:19        0.01
  R0019840             JUNCTION     0.00     1.88    70.85     0  02:20        1.85
  R0043702             JUNCTION     0.00     2.05    70.75     0  02:20        2.02
  R0019723             JUNCTION     0.00     1.18    71.26     0  02:20        1.17
  R0019724             JUNCTION     0.00     1.13    71.29     0  02:20        1.10
  R0021433             JUNCTION     0.01     2.15    72.54     0  02:17        2.15
  R0021435             JUNCTION     0.01     2.11    72.29     0  02:17        2.11
  R0019769             OUTFALL      0.00     0.55    63.93     0  02:21        0.55
  
  
  *******************
  Node Inflow Summary
  *******************
  
  -------------------------------------------------------------------------------------------------
                                  Maximum  Maximum                  Lateral       Total        Flow
                                  Lateral    Total  Time of Max      Inflow      Inflow     Balance
                                   Inflow   Inflow   Occurrence      Volume      Volume       Error
  Node                 Type           CMS      CMS  days hr:min    10^6 ltr    10^6 ltr     Percent
  -------------------------------------------------------------------------------------------------
  R0019466             JUNCTION     0.147    0.147     0  02:20      0.0866       0.122       0.051
  R0019468             JUNCTION     0.091    0.164     0  02:19      0.0509       0.159      -0.028
  R0019831             JUNCTION     0.119    0.119     0  02:20      0.0683      0.0683       0.106
  R0019825             JUNCTION     0.119    0.219     0  02:20      0.0686       0.136       0.153
  R0019843             JUNCTION     0.000    2.443     0  02:19           0        2.05      -0.054
  R0019368             JUNCTION     0.000    2.393     0  02:20           0        2.05      -0.037
  R0019369             JUNCTION     0.000    2.398     0  02:20           0        2.05      -0.027
  R0019370             JUNCTION     0.000    2.388     0  02:20           0        2.06       0.003
  R0019345             JUNCTION     0.000    0.161     0  02:18           0       0.124       0.034
  R0019346             JUNCTION     0.019    0.303     0  02:20     0.00874       0.216       0.019
  R0043600             JUNCTION     0.000    0.218     0  02:19           0       0.215      -0.097
  R0019203             JUNCTION     0.038    0.745     0  02:20      0.0192        0.59      -0.025
  R0043594             JUNCTION     0.199    0.286     0  02:20       0.122       0.177      -0.099
  R0021458             JUNCTION     0.160    0.375     0  02:22      0.0959       0.272      -0.017
  R0019202             JUNCTION     0.056    0.523     0  02:23      0.0291       0.354      -0.356
  R0019373             JUNCTION     0.130    0.201     0  02:20      0.0755      0.0895       1.232
  R0019254             JUNCTION     0.108    0.168     0  02:18      0.0616       0.124       0.027
  R0019716             JUNCTION     0.159    1.546     0  02:19      0.0953        1.19      -0.014
  R0019946             JUNCTION     0.000    1.480     0  02:20           0        1.19       0.004
  R0013935             JUNCTION     0.104    0.104     0  02:20      0.0588      0.0588       0.081
  R0019939             JUNCTION     0.042    0.124     0  02:19      0.0214      0.0783      -0.110
  R0019944             JUNCTION     0.097    1.761     0  02:19      0.0547        1.51       0.027
  R0043703             JUNCTION     0.116    1.605     0  02:20      0.0668        1.26      -0.018
  R0019945             JUNCTION     0.000    1.710     0  02:20           0        1.45      -0.001
  R0039621             JUNCTION     0.000    0.114     0  02:20           0     0.00824      -2.620
  R0019838             JUNCTION     0.214    0.216     0  02:19       0.133       0.137      -0.061
  R0039606             JUNCTION     0.000    0.431     0  02:23           0       0.272       0.091
  R0019204             JUNCTION     0.000    0.000     0  00:00           0           0       0.000 ltr
  R0019205             JUNCTION     0.000    0.000     0  00:00           0           0       0.000 ltr
  R0019849             JUNCTION     0.000    0.216     0  02:19           0       0.191       0.013
  R0019371             JUNCTION     0.000    0.000     0  00:00           0           0       0.000 ltr
  R0019718             JUNCTION     0.139    0.845     0  02:20      0.0817       0.671      -1.176
  R0021442             JUNCTION     0.156    0.228     0  02:20        0.09       0.185       0.030
  R0019247             JUNCTION     0.078    0.220     0  02:20      0.0426       0.215       0.108
  R0019719             JUNCTION     0.081    0.381     0  02:20      0.0448        0.26       0.628
  R0019767             JUNCTION     0.000    2.377     0  02:21           0        2.06      -0.006
  R0019768             JUNCTION     0.000    2.369     0  02:21           0        2.06       0.010
  R0021453             JUNCTION     0.096    0.096     0  02:20      0.0537      0.0545       0.002
  R0019839             JUNCTION     0.212    0.389     0  02:19       0.131       0.259       0.049
  R0019717             JUNCTION     0.258    1.452     0  02:20       0.164         1.1       0.337
  R0019252             JUNCTION     0.125    0.125     0  02:20      0.0722      0.0722      -0.032
  R0019721             JUNCTION     0.038    0.148     0  02:20      0.0189      0.0829       0.128
  R0019942             JUNCTION     0.000    0.124     0  02:17           0       0.112      -0.304
  R0019206             JUNCTION     0.000    0.040     0  02:19           0    0.000229       8.059
  R0019840             JUNCTION     0.000    0.498     0  02:19           0       0.418      -0.016
  R0043702             JUNCTION     0.212    0.691     0  02:19       0.131       0.549       0.464
  R0019723             JUNCTION     0.091    0.114     0  02:19      0.0505       0.064      -0.217
  R0019724             JUNCTION     0.028    0.035     0  02:18      0.0133      0.0135      -0.480
  R0021433             JUNCTION     0.129    0.129     0  02:20      0.0755      0.0755      -0.101
  R0021435             JUNCTION     0.084    0.156     0  02:20      0.0468       0.114      -0.117
  R0019769             OUTFALL      0.000    2.374     0  02:21           0        2.05       0.000
  
  
  **********************
  Node Surcharge Summary
  **********************
  
  Surcharging occurs when water rises above the top of the highest conduit.
  ---------------------------------------------------------------------
                                               Max. Height   Min. Depth
                                   Hours       Above Crown    Below Rim
  Node                 Type      Surcharged         Meters       Meters
  ---------------------------------------------------------------------
  R0019466             JUNCTION        0.23          2.138        0.372
  R0019468             JUNCTION        0.22          2.117        0.313
  R0019831             JUNCTION        0.15          1.360        0.000
  R0019825             JUNCTION        0.20          1.200        0.000
  R0019843             JUNCTION        0.08          0.722        1.898
  R0019368             JUNCTION        0.11          0.862        0.188
  R0019345             JUNCTION        0.14          1.055        0.695
  R0019346             JUNCTION        0.11          0.782        0.958
  R0043600             JUNCTION        0.13          0.467        2.113
  R0019373             JUNCTION        0.15          1.707        0.793
  R0019254             JUNCTION        0.17          1.741        0.089
  R0019716             JUNCTION        0.04          0.270        1.450
  R0019946             JUNCTION        0.08          0.434        1.086
  R0013935             JUNCTION        0.16          1.320        0.000
  R0019939             JUNCTION        0.23          1.382        0.238
  R0019944             JUNCTION        0.03          0.238        1.292
  R0043703             JUNCTION        0.02          0.281        1.039
  R0019945             JUNCTION        0.03          0.207        1.253
  R0039621             JUNCTION        0.05          1.060        0.000
  R0019838             JUNCTION        0.06          1.300        0.000
  R0019849             JUNCTION        0.24          1.179        0.751
  R0019718             JUNCTION        0.01          0.087        1.913
  R0021442             JUNCTION        0.26          1.750        0.000
  R0019247             JUNCTION        0.16          0.848        1.012
  R0019719             JUNCTION        0.07          0.458        1.342
  R0019839             JUNCTION        0.06          1.346        0.304
  R0019717             JUNCTION        0.01          0.014        1.836
  R0019252             JUNCTION        0.14          1.640        0.000
  R0019721             JUNCTION        0.10          0.858        0.702
  R0019942             JUNCTION        0.20          1.119        0.531
  R0019840             JUNCTION        0.09          1.378        1.192
  R0043702             JUNCTION        0.11          1.549        1.361
  R0019723             JUNCTION        0.07          0.781        0.539
  R0019724             JUNCTION        0.07          0.830        0.620
  R0021433             JUNCTION        0.19          1.850        0.000
  R0021435             JUNCTION        0.23          1.810        0.000
  
  
  *********************
  Node Flooding Summary
  *********************
  
  Flooding refers to all water that overflows a node, whether it ponds or not.
  --------------------------------------------------------------------------
                                                             Total   Maximum
                                 Maximum   Time of Max       Flood    Ponded
                        Hours       Rate    Occurrence      Volume     Depth
  Node                 Flooded       CMS   days hr:min    10^6 ltr    Meters
  --------------------------------------------------------------------------
  R0019831                0.03     0.018      0  02:20       0.001     0.000
  R0019825                0.08     0.128      0  02:20       0.023     0.000
  R0013935                0.03     0.027      0  02:20       0.002     0.000
  R0039621                0.02     0.114      0  02:20       0.004     0.000
  R0019838                0.01     0.036      0  02:19       0.000     0.000
  R0021442                0.08     0.086      0  02:20       0.013     0.000
  R0019252                0.05     0.087      0  02:20       0.010     0.000
  R0021433                0.07     0.058      0  02:20       0.009     0.000
  R0021435                0.09     0.084      0  02:20       0.019     0.000
  
  
  ***********************
  Outfall Loading Summary
  ***********************
  
  -----------------------------------------------------------
                         Flow       Avg       Max       Total
                         Freq      Flow      Flow      Volume
  Outfall Node           Pcnt       CMS       CMS    10^6 ltr
  -----------------------------------------------------------
  R0019769               4.42     0.171     2.374       2.055
  -----------------------------------------------------------
  System                 4.42     0.171     2.374       2.055
  
  
  ********************
  Link Flow Summary
  ********************
  
  -----------------------------------------------------------------------------
                                 Maximum  Time of Max   Maximum    Max/    Max/
                                  |Flow|   Occurrence   |Veloc|    Full    Full
  Link                 Type          CMS  days hr:min     m/sec    Flow   Depth
  -----------------------------------------------------------------------------
  H0014431             CONDUIT     0.084     0  02:18      1.19    1.56    1.00
  H0014433             CONDUIT     0.100     0  02:20      1.42    1.28    1.00
  H0014352             CONDUIT     2.393     0  02:20      3.76    0.98    1.00
  H0014373             CONDUIT     2.388     0  02:20      4.30    1.10    0.83
  H0017981             CONDUIT     0.159     0  02:18      2.25    4.50    1.00
  H0017755             CONDUIT     0.217     0  02:20      1.73    1.76    1.00
  H0017791             CONDUIT     0.306     0  02:22      0.72    0.44    0.75
  H0017357             CONDUIT     0.194     0  02:20      2.74    3.09    1.00
  H0018216             CONDUIT     0.161     0  02:18      2.27    2.92    1.00
  H0016792             CONDUIT     1.480     0  02:20      2.33    0.85    1.00
  H0019507             CONDUIT     0.086     0  02:19      1.21    1.19    1.00
  H0019998             CONDUIT     1.823     0  02:19      3.47    0.73    1.00
  H0019576             CONDUIT     1.513     0  02:20      2.61    1.02    1.00
  H0020087             CONDUIT     0.114     0  02:20      0.58    0.50    1.00
  H0020211             CONDUIT     1.495     0  02:20      2.35    3.72    1.00
  H0018982             CONDUIT     0.431     0  02:23      0.94    0.69    0.85
  H0018753             CONDUIT     0.075     0  02:20      1.07    1.07    1.00
  H0018845             CONDUIT     0.000     0  00:00      0.00    0.00    0.00
  H0018863             CONDUIT     0.120     0  02:19      1.70    2.82    1.00
  H0019156             CONDUIT     0.000     0  00:00      0.00    0.00    0.00
  H0018929             CONDUIT     0.743     0  02:23      1.47    0.64    1.00
  H0018440             CONDUIT     0.159     0  02:17      2.25    2.86    1.00
  H0018456             CONDUIT     0.300     0  02:20      2.39    1.82    1.00
  H0018968             CONDUIT     2.369     0  02:21      5.13    0.91    0.68
  H0022036             CONDUIT     0.144     0  02:22      0.55    0.11    0.61
  H0021806             CONDUIT     0.218     0  02:19      1.73    1.93    1.00
  H0022111             CONDUIT     0.185     0  02:19      0.94    1.32    1.00
  H0021440             CONDUIT     1.389     0  02:19      2.54    0.90    1.00
  H0021704             CONDUIT     0.826     0  02:20      1.73    1.57    1.00
  H0020521             CONDUIT     0.082     0  02:18      1.16    1.66    1.00
  H0020755             CONDUIT     0.145     0  02:20      1.16    1.60    1.00
  H0020530             CONDUIT     2.398     0  02:20      3.77    2.05    1.00
  H0020618             CONDUIT     1.684     0  02:20      3.35    1.04    1.00
  H0021163             CONDUIT     0.124     0  02:17      1.75    2.07    1.00
  H0020497             CONDUIT     0.040     0  02:19      0.57    0.09    1.00
  H0024325             CONDUIT     0.352     0  02:19      1.87    1.05    1.00
  H0023585             CONDUIT     0.684     0  02:19      3.48    1.57    1.00
  H0024098             CONDUIT     0.212     0  02:18      3.00    2.47    1.00
  H0024235             CONDUIT     0.378     0  02:20      1.92    1.55    1.00
  H0024282             CONDUIT     0.000     0  00:00      0.00    0.00    0.08
  H0024308             CONDUIT     2.374     0  02:21      5.79    0.70    0.61
  H0024498             CONDUIT     0.157     0  02:18      2.23    2.44    1.00
  H0026990             CONDUIT     0.111     0  02:20      0.88    0.84    1.00
  H0041650             CONDUIT     0.532     0  02:23      1.15    0.62    0.93
  H0041011             CONDUIT     0.117     0  02:17      1.65    1.16    1.00
  H0045103             CONDUIT     0.458     0  02:23      1.01    0.57    0.95
  H0045104             CONDUIT     2.377     0  02:21      4.80    0.84    0.73
  H0045105             CONDUIT     0.028     0  02:20      0.44    0.48    1.00
  H0045106             CONDUIT     0.481     0  02:19      2.45    0.65    1.00
  H0045107             CONDUIT     0.072     0  02:21      1.01    1.18    1.00
  H0045108             CONDUIT     0.089     0  02:22      1.26    1.60    1.00
  
  
  ***************************
  Flow Classification Summary
  ***************************
  
  -------------------------------------------------------------------------------------
                      Adjusted    ---------- Fraction of Time in Flow Class ---------- 
                       /Actual         Up    Down  Sub   Sup   Up    Down  Norm  Inlet 
  Conduit               Length    Dry  Dry   Dry   Crit  Crit  Crit  Crit  Ltd   Ctrl  
  -------------------------------------------------------------------------------------
  H0014431                1.00   0.03  0.00  0.00  0.97  0.00  0.00  0.00  0.97  0.00
  H0014433                1.00   0.03  0.00  0.00  0.97  0.00  0.00  0.00  0.97  0.00
  H0014352                1.00   0.03  0.00  0.00  0.95  0.02  0.00  0.00  0.97  0.00
  H0014373                1.00   0.03  0.00  0.00  0.93  0.04  0.00  0.00  0.92  0.00
  H0017981                1.00   0.03  0.00  0.00  0.00  0.00  0.00  0.97  0.00  0.00
  H0017755                1.00   0.03  0.00  0.00  0.00  0.00  0.00  0.97  0.00  0.00
  H0017791                1.00   0.03  0.00  0.00  0.97  0.00  0.00  0.00  0.97  0.00
  H0017357                1.00   0.03  0.97  0.00  0.00  0.00  0.00  0.00  0.97  0.00
  H0018216                1.00   0.03  0.93  0.00  0.04  0.00  0.00  0.00  0.97  0.00
  H0016792                1.00   0.03  0.92  0.00  0.05  0.00  0.00  0.00  0.97  0.00
  H0019507                1.00   0.03  0.00  0.00  0.97  0.00  0.00  0.00  0.97  0.00
  H0019998                1.00   0.03  0.00  0.00  0.94  0.04  0.00  0.00  0.05  0.00
  H0019576                1.00   0.03  0.00  0.00  0.96  0.02  0.00  0.00  0.05  0.00
  H0020087                1.00   0.03  0.96  0.00  0.02  0.00  0.00  0.00  0.96  0.00
  H0020211                1.00   0.03  0.00  0.00  0.97  0.00  0.00  0.00  0.92  0.00
  H0018982                1.00   0.03  0.00  0.00  0.97  0.00  0.00  0.00  0.94  0.00
  H0018753                1.00   0.03  0.00  0.00  0.97  0.00  0.00  0.00  0.97  0.00
  H0018845                1.00   1.00  0.00  0.00  0.00  0.00  0.00  0.00  0.00  0.00
  H0018863                1.00   0.03  0.00  0.00  0.97  0.00  0.00  0.00  0.96  0.00
  H0019156                1.00   1.00  0.00  0.00  0.00  0.00  0.00  0.00  0.00  0.00
  H0018929                1.00   0.03  0.93  0.00  0.05  0.00  0.00  0.00  0.97  0.00
  H0018440                1.00   0.03  0.00  0.00  0.97  0.00  0.00  0.00  0.97  0.00
  H0018456                1.00   0.03  0.00  0.00  0.97  0.00  0.00  0.00  0.96  0.00
  H0018968                1.00   0.03  0.00  0.00  0.93  0.04  0.00  0.00  0.94  0.00
  H0022036                1.00   0.03  0.00  0.00  0.01  0.00  0.00  0.96  0.01  0.00
  H0021806                1.00   0.03  0.93  0.00  0.04  0.00  0.00  0.00  0.96  0.00
  H0022111                1.00   0.03  0.00  0.00  0.97  0.00  0.00  0.00  0.00  0.00
  H0021440                1.00   0.03  0.00  0.00  0.95  0.02  0.00  0.00  0.02  0.00
  H0021704                1.00   0.03  0.00  0.00  0.00  0.00  0.00  0.97  0.00  0.00
  H0020521                1.00   0.03  0.00  0.00  0.97  0.00  0.00  0.00  0.97  0.00
  H0020755                1.00   0.03  0.93  0.00  0.04  0.00  0.00  0.00  0.97  0.00
  H0020530                1.00   0.03  0.00  0.00  0.95  0.02  0.00  0.00  0.01  0.00
  H0020618                1.00   0.03  0.00  0.00  0.94  0.03  0.00  0.00  0.93  0.00
  H0021163                1.00   0.03  0.00  0.00  0.97  0.01  0.00  0.00  0.94  0.00
  H0020497                1.20   0.03  0.97  0.00  0.00  0.00  0.00  0.00  0.97  0.00
  H0024325                1.00   0.03  0.00  0.00  0.95  0.02  0.00  0.00  0.94  0.00
  H0023585                1.00   0.03  0.00  0.00  0.00  0.00  0.00  0.97  0.00  0.00
  H0024098                1.00   0.03  0.93  0.00  0.04  0.00  0.00  0.00  0.97  0.00
  H0024235                1.00   0.03  0.00  0.00  0.00  0.00  0.00  0.97  0.00  0.00
  H0024282                1.00   1.00  0.00  0.00  0.00  0.00  0.00  0.00  0.00  0.00
  H0024308                1.00   0.03  0.00  0.00  0.92  0.05  0.00  0.00  0.01  0.00
  H0024498                1.00   0.03  0.00  0.00  0.00  0.00  0.00  0.97  0.00  0.00
  H0026990                1.00   0.03  0.00  0.00  0.97  0.00  0.00  0.00  0.97  0.00
  H0041650                1.00   0.95  0.01  0.00  0.04  0.00  0.00  0.00  0.96  0.00
  H0041011                1.00   0.03  0.00  0.00  0.97  0.00  0.00  0.00  0.96  0.00
  H0045103                1.00   0.03  0.00  0.00  0.97  0.00  0.00  0.00  0.95  0.00
  H0045104                1.00   0.03  0.00  0.00  0.93  0.04  0.00  0.00  0.05  0.00
  H0045105                1.00   0.03  0.00  0.00  0.97  0.00  0.00  0.00  0.97  0.00
  H0045106                1.00   0.03  0.93  0.00  0.02  0.02  0.00  0.00  0.97  0.00
  H0045107                1.00   0.03  0.00  0.00  0.97  0.00  0.00  0.00  0.97  0.00
  H0045108                1.00   0.03  0.00  0.00  0.97  0.00  0.00  0.00  0.97  0.00
  
  
  *************************
  Conduit Surcharge Summary
  *************************
  
  ----------------------------------------------------------------------------
                                                           Hours        Hours 
                         --------- Hours Full --------   Above Full   Capacity
  Conduit                Both Ends  Upstream  Dnstream   Normal Flow   Limited
  ----------------------------------------------------------------------------
  H0014431                    0.22      0.23      0.22      0.24         0.20
  H0014433                    0.15      0.15      0.20      0.06         0.05
  H0014352                    0.08      0.08      0.11      0.01         0.01
  H0014373                    0.01      0.01      0.01      0.06         0.01
  H0017981                    0.11      0.14      0.11      0.29         0.13
  H0017755                    0.11      0.13      0.11      0.17         0.13
  H0017357                    0.08      0.08      0.15      0.10         0.01
  H0018216                    0.14      0.17      0.14      0.20         0.16
  H0016792                    0.04      0.04      0.08      0.01         0.01
  H0019507                    0.16      0.16      0.23      0.04         0.03
  H0019998                    0.03      0.03      0.08      0.01         0.01
  H0019576                    0.02      0.02      0.03      0.01         0.01
  H0020087                    0.05      0.05      0.06      0.01         0.01
  H0020211                    0.02      0.08      0.02      0.24         0.04
  H0018753                    0.15      0.15      0.23      0.01         0.01
  H0018863                    0.23      0.23      0.24      0.14         0.13
  H0018929                    0.01      0.01      0.01      0.01         0.01
  H0018440                    0.19      0.26      0.19      0.30         0.23
  H0018456                    0.10      0.11      0.10      0.13         0.10
  H0021806                    0.13      0.16      0.13      0.18         0.15
  H0022111                    0.06      0.06      0.06      0.04         0.03
  H0021440                    0.01      0.01      0.04      0.01         0.01
  H0021704                    0.01      0.01      0.01      0.13         0.01
  H0020521                    0.14      0.14      0.17      0.09         0.09
  H0020755                    0.10      0.10      0.11      0.05         0.05
  H0020530                    0.01      0.11      0.01      0.16         0.10
  H0020618                    0.02      0.03      0.03      0.05         0.01
  H0021163                    0.19      0.20      0.20      0.19         0.18
  H0020497                    0.01      0.01     73.67      0.01         0.01
  H0024325                    0.06      0.06      0.09      0.01         0.01
  H0023585                    0.09      0.11      0.09      0.12         0.10
  H0024098                    0.24      0.24      0.30      0.21         0.20
  H0024235                    0.06      0.07      0.06      0.08         0.07
  H0024498                    0.10      0.22      0.10      0.26         0.18
  H0026990                    0.07      0.07      0.10      0.01         0.01
  H0041011                    0.20      0.20      0.24      0.05         0.04
  H0045105                    0.07      0.07      0.08      0.01         0.01
  H0045106                    0.09      0.09      0.11      0.01         0.01
  H0045107                    0.19      0.19      0.23      0.08         0.08
  H0045108                    0.23      0.23      0.26      0.17         0.17
  

  Analysis begun on:  Fri Mar 22 15:57:08 2024
  Analysis ended on:  Fri Mar 22 15:57:14 2024
  Total elapsed time: 00:00:06