
  EPA STORM WATER MANAGEMENT MODEL - VERSION 5.2 (Build 5.2.4)
  PYSWMM TOOLKIT API - VERSION v1.0 (2023-11-27)
  ------------------------------------------------------------

  Gievenbeck_e2_T50D720 
  
  ****************
  Analysis Options
  ****************
  Flow Units ............... CMS
  Process Models:
    Rainfall/Runoff ........ YES
    RDII ................... NO
    Snowmelt ............... NO
    Groundwater ............ NO
    Flow Routing ........... YES
    Ponding Allowed ........ NO
    Water Quality .......... NO
  Infiltration Method ...... HORTON
  Flow Routing Method ...... DYNWAVE
  Surcharge Method ......... SLOT
  Starting Date ............ 01/01/2024 00:00:00
  Ending Date .............. 01/04/2024 04:00:00
  Antecedent Dry Days ...... 14.0
  Report Time Step ......... 00:01:00
  Wet Time Step ............ 00:01:00
  Dry Time Step ............ 00:01:00
  Routing Time Step ........ 1.00 sec
  Variable Time Step ....... YES
  Maximum Trials ........... 8
  Number of Threads ........ 1
  Head Tolerance ........... 0.001500 m
  
  
  **************************        Volume         Depth
  Runoff Quantity Continuity     hectare-m            mm
  **************************     ---------       -------
  Total Precipitation ......         0.751        74.220
  Evaporation Loss .........         0.010         0.951
  Infiltration Loss ........         0.314        31.061
  Surface Runoff ...........         0.428        42.283
  Final Storage ............         0.000         0.000
  Continuity Error (%) .....        -0.100
  
  
  **************************        Volume        Volume
  Flow Routing Continuity        hectare-m      10^6 ltr
  **************************     ---------     ---------
  Dry Weather Inflow .......         0.000         0.000
  Wet Weather Inflow .......         0.428         4.280
  Groundwater Inflow .......         0.000         0.000
  RDII Inflow ..............         0.000         0.000
  External Inflow ..........         0.000         0.000
  External Outflow .........         0.403         4.032
  Flooding Loss ............         0.025         0.254
  Evaporation Loss .........         0.000         0.000
  Exfiltration Loss ........         0.000         0.000
  Initial Stored Volume ....         0.000         0.000
  Final Stored Volume ......         0.000         0.000
  Continuity Error (%) .....        -0.151
  
  
  *************************
  Highest Continuity Errors
  *************************
  Node R0019205 (-18.41%)
  
  
  ***************************
  Time-Step Critical Elements
  ***************************
  None
  
  
  ********************************
  Highest Flow Instability Indexes
  ********************************
  All links are stable.
  
  
  *********************************
  Most Frequent Nonconverging Nodes
  *********************************
  Convergence obtained at all time steps.
  
  
  *************************
  Routing Time Step Summary
  *************************
  Minimum Time Step           :     0.19 sec
  Average Time Step           :     1.00 sec
  Maximum Time Step           :     1.00 sec
  % of Time in Steady State   :     0.00
  Average Iterations per Step :     2.00
  % of Steps Not Converging   :     0.00
  Time Step Frequencies       :
      1.000 -  0.871 sec      :    99.99 %
      0.871 -  0.758 sec      :     0.01 %
      0.758 -  0.660 sec      :     0.00 %
      0.660 -  0.574 sec      :     0.00 %
      0.574 -  0.500 sec      :     0.00 %
  
  
  ***************************
  Subcatchment Runoff Summary
  ***************************
  
  ------------------------------------------------------------------------------------------------------------------------------
                            Total      Total      Total      Total     Imperv       Perv      Total       Total     Peak  Runoff
                           Precip      Runon       Evap      Infil     Runoff     Runoff     Runoff      Runoff   Runoff   Coeff
  Subcatchment                 mm         mm         mm         mm         mm         mm         mm    10^6 ltr      CMS
  ------------------------------------------------------------------------------------------------------------------------------
  EZG_368                   74.22       0.00       0.94      31.27      36.22      11.30      42.08        0.17     0.19   0.567
  EZG_392                   74.22       0.00       0.94      31.09      36.22      11.47      42.26        0.14     0.15   0.569
  EZG_352                   74.22       0.00       0.95      31.54      36.21      11.02      41.80        0.25     0.26   0.563
  EZG_372                   74.22       0.00       0.93      30.55      36.24      12.03      42.84        0.06     0.07   0.577
  EZG_416                   74.22       0.00       0.94      31.02      36.23      11.55      42.34        0.12     0.14   0.570
  EZG_388                   74.22       0.00       0.95      31.34      36.21      11.22      42.00        0.19     0.20   0.566
  EZG_394                   74.22       0.00       0.94      30.99      36.23      11.58      42.37        0.12     0.13   0.571
  EZG_400                   74.22       0.00       0.94      30.94      36.23      11.63      42.43        0.11     0.12   0.572
  EZG_390                   74.22       0.00       0.94      31.08      36.22      11.49      42.28        0.13     0.15   0.570
  EZG_350                   74.22       0.00       0.95      31.35      36.21      11.22      42.00        0.19     0.21   0.566
  EZG_370                   74.22       0.00       0.94      31.16      36.22      11.40      42.19        0.15     0.17   0.568
  EZG_398                   74.22       0.00       0.93      30.38      36.25      12.21      43.02        0.04     0.05   0.580
  EZG_382                   74.22       0.00       0.93      30.32      36.25      12.27      43.08        0.04     0.05   0.580
  EZG_374                   74.22       0.00       1.14      25.69      43.45      10.54      47.47        0.18     0.19   0.640
  EZG_412                   74.22       0.00       0.92      29.96      36.27      12.64      43.47        0.02     0.02   0.586
  EZG_344                   74.22       0.00       0.94      30.93      36.23      11.64      42.44        0.11     0.12   0.572
  EZG_376                   74.22       0.00       0.94      30.77      36.24      11.80      42.60        0.08     0.10   0.574
  EZG_356                   74.22       0.00       0.95      31.60      36.20      10.95      41.73        0.27     0.27   0.562
  EZG_386                   74.22       0.00       0.95      31.79      36.20      10.77      41.54        0.33     0.33   0.560
  EZG_380                   74.22       0.00       0.94      31.22      36.22      11.34      42.13        0.16     0.18   0.568
  EZG_378                   74.22       0.00       0.94      31.13      36.22      11.43      42.22        0.14     0.16   0.569
  EZG_414                   74.22       0.00       0.93      30.31      36.26      12.27      43.09        0.04     0.05   0.581
  EZG_402                   74.22       0.00       0.94      31.10      36.22      11.47      42.26        0.14     0.15   0.569
  EZG_358                   74.22       0.00       0.95      31.59      36.20      10.96      41.74        0.26     0.27   0.562
  EZG_364                   74.22       0.00       0.95      31.60      36.20      10.96      41.74        0.26     0.27   0.562
  EZG_410                   74.22       0.00       0.94      30.81      36.23      11.76      42.56        0.09     0.10   0.573
  EZG_366                   74.22       0.00       0.94      30.89      36.23      11.68      42.48        0.10     0.12   0.572
  EZG_18259                 74.22       0.00       0.94      30.89      36.23      11.68      42.48        0.10     0.12   0.572
  EZG_18258                 74.22       0.00       0.93      30.14      36.26      12.45      43.27        0.03     0.03   0.583
  EZG_346                   74.22       0.00       0.92      31.73      35.50      11.47      41.64        0.15     0.17   0.561
  EZG_348                   74.22       0.00       0.92      31.39      35.51      11.82      42.00        0.09     0.11   0.566
  
  
  ******************
  Node Depth Summary
  ******************
  
  ---------------------------------------------------------------------------------
                                 Average  Maximum  Maximum  Time of Max    Reported
                                   Depth    Depth      HGL   Occurrence   Max Depth
  Node                 Type       Meters   Meters   Meters  days hr:min      Meters
  ---------------------------------------------------------------------------------
  R0019466             JUNCTION     0.01     2.81    72.26     0  06:03        2.81
  R0019468             JUNCTION     0.01     2.73    72.04     0  06:03        2.73
  R0019831             JUNCTION     0.01     1.66    70.83     0  06:01        1.66
  R0019825             JUNCTION     0.01     1.50    70.34     0  06:01        1.50
  R0019843             JUNCTION     0.02     2.10    69.73     0  06:05        1.98
  R0019368             JUNCTION     0.02     1.95    68.74     0  06:05        1.95
  R0019369             JUNCTION     0.02     1.31    67.90     0  06:05        1.22
  R0019370             JUNCTION     0.01     0.70    66.60     0  06:05        0.67
  R0019345             JUNCTION     0.01     2.05    71.95     0  06:05        1.92
  R0019346             JUNCTION     0.01     2.14    71.94     0  06:05        1.92
  R0043600             JUNCTION     0.01     2.79    72.46     0  06:05        1.74
  R0019203             JUNCTION     0.01     2.59    72.13     0  06:05        2.05
  R0043594             JUNCTION     0.01     2.75    72.48     0  06:04        2.49
  R0021458             JUNCTION     0.01     2.59    72.24     0  06:04        2.41
  R0019202             JUNCTION     0.01     2.61    72.19     0  06:05        2.23
  R0019373             JUNCTION     0.01     2.80    72.47     0  06:05        2.64
  R0019254             JUNCTION     0.01     2.13    72.17     0  06:04        2.13
  R0019716             JUNCTION     0.01     2.47    71.48     0  06:05        1.94
  R0019946             JUNCTION     0.03     2.42    71.04     0  06:05        2.06
  R0013935             JUNCTION     0.01     1.62    70.45     0  06:02        1.62
  R0019939             JUNCTION     0.01     1.92    70.49     0  06:05        1.81
  R0019944             JUNCTION     0.01     1.88    70.16     0  06:05        1.67
  R0043703             JUNCTION     0.02     2.06    70.66     0  06:05        1.77
  R0019945             JUNCTION     0.02     1.94    70.34     0  06:05        1.70
  R0039621             JUNCTION     0.00     1.56    71.13     0  06:03        1.56
  R0019838             JUNCTION     0.01     1.80    71.26     0  06:03        1.80
  R0039606             JUNCTION     0.01     2.60    72.19     0  06:05        2.26
  R0019204             JUNCTION     0.00     0.00    69.91     0  00:00        0.00
  R0019205             JUNCTION     0.00     0.05    69.67     0  06:05        0.05
  R0019849             JUNCTION     0.01     1.91    70.43     0  06:05        1.71
  R0019371             JUNCTION     0.00     0.00    70.41     0  00:00        0.00
  R0019718             JUNCTION     0.02     2.64    72.06     0  06:05        1.91
  R0021442             JUNCTION     0.01     2.05    72.10     0  06:01        2.05
  R0019247             JUNCTION     0.01     2.26    72.14     0  06:05        1.90
  R0019719             JUNCTION     0.01     2.27    71.95     0  06:05        1.86
  R0019767             JUNCTION     0.02     0.73    65.46     0  06:05        0.73
  R0019768             JUNCTION     0.01     0.59    64.36     0  06:05        0.59
  R0021453             JUNCTION     0.00     2.40    72.35     0  06:04        2.40
  R0019839             JUNCTION     0.01     2.01    71.40     0  06:03        1.91
  R0019717             JUNCTION     0.01     2.50    71.84     0  06:05        1.87
  R0019252             JUNCTION     0.01     1.94    72.13     0  06:01        1.94
  R0019721             JUNCTION     0.01     1.96    71.83     0  06:05        1.87
  R0019942             JUNCTION     0.01     1.83    70.48     0  06:05        1.61
  R0019206             JUNCTION     0.00     0.81    69.88     0  06:05        0.62
  R0019840             JUNCTION     0.01     2.12    71.09     0  06:05        2.11
  R0043702             JUNCTION     0.01     2.32    71.02     0  06:05        2.31
  R0019723             JUNCTION     0.01     1.72    71.80     0  06:04        1.72
  R0019724             JUNCTION     0.00     1.72    71.88     0  06:04        1.65
  R0021433             JUNCTION     0.01     2.15    72.54     0  06:01        2.15
  R0021435             JUNCTION     0.01     2.11    72.29     0  06:01        2.11
  R0019769             OUTFALL      0.01     0.59    63.97     0  06:06        0.59
  
  
  *******************
  Node Inflow Summary
  *******************
  
  -------------------------------------------------------------------------------------------------
                                  Maximum  Maximum                  Lateral       Total        Flow
                                  Lateral    Total  Time of Max      Inflow      Inflow     Balance
                                   Inflow   Inflow   Occurrence      Volume      Volume       Error
  Node                 Type           CMS      CMS  days hr:min    10^6 ltr    10^6 ltr     Percent
  -------------------------------------------------------------------------------------------------
  R0019466             JUNCTION     0.187    0.211     0  06:05       0.174        0.27       0.012
  R0019468             JUNCTION     0.116    0.191     0  06:05       0.102       0.346      -0.002
  R0019831             JUNCTION     0.151    0.151     0  06:05       0.137       0.137       0.027
  R0019825             JUNCTION     0.152    0.252     0  06:05       0.137       0.267       0.004
  R0019843             JUNCTION     0.000    2.748     0  06:05           0        4.03      -0.042
  R0019368             JUNCTION     0.000    2.687     0  06:05           0        4.03      -0.026
  R0019369             JUNCTION     0.000    2.672     0  06:05           0        4.03      -0.012
  R0019370             JUNCTION     0.000    2.629     0  06:05           0        4.03       0.004
  R0019345             JUNCTION     0.000    0.162     0  06:02           0       0.233       0.025
  R0019346             JUNCTION     0.022    0.318     0  06:03      0.0173       0.409       0.008
  R0043600             JUNCTION     0.000    0.223     0  06:03           0       0.423      -0.056
  R0019203             JUNCTION     0.047    0.955     0  06:05      0.0381        1.14      -0.056
  R0043594             JUNCTION     0.255    0.679     0  06:04       0.247       0.365      -0.152
  R0021458             JUNCTION     0.205    0.670     0  06:05       0.193       0.558      -0.060
  R0019202             JUNCTION     0.069    0.851     0  06:05       0.058        0.68      -0.201
  R0019373             JUNCTION     0.166    0.230     0  06:03       0.151       0.167       0.646
  R0019254             JUNCTION     0.138    0.177     0  06:02       0.123       0.236       0.020
  R0019716             JUNCTION     0.204    1.815     0  06:05       0.191        2.33      -0.011
  R0019946             JUNCTION     0.000    1.817     0  06:05           0        2.33      -0.006
  R0013935             JUNCTION     0.132    0.132     0  06:05       0.118       0.118      -0.004
  R0019939             JUNCTION     0.052    0.129     0  06:02      0.0426       0.146      -0.011
  R0019944             JUNCTION     0.124    2.136     0  06:05       0.109        2.93       0.008
  R0043703             JUNCTION     0.148    1.925     0  06:05       0.134        2.46      -0.009
  R0019945             JUNCTION     0.000    2.031     0  06:05           0        2.82      -0.016
  R0039621             JUNCTION     0.000    0.255     0  06:05           0      0.0432      -0.683
  R0019838             JUNCTION     0.274    0.293     0  06:05       0.267       0.272      -0.088
  R0039606             JUNCTION     0.000    0.667     0  06:05           0       0.556       0.111
  R0019204             JUNCTION     0.000    0.000     0  00:00           0           0       0.000 ltr
  R0019205             JUNCTION     0.000    0.025     0  06:05           0    0.000334     -15.551
  R0019849             JUNCTION     0.000    0.224     0  06:02           0       0.364       0.002
  R0019371             JUNCTION     0.000    0.000     0  00:00           0           0       0.000 ltr
  R0019718             JUNCTION     0.178    1.113     0  06:05       0.164         1.3      -0.278
  R0021442             JUNCTION     0.189    0.261     0  06:05        0.18       0.375       0.008
  R0019247             JUNCTION     0.098    0.226     0  06:03      0.0849       0.425       0.057
  R0019719             JUNCTION     0.103    0.403     0  06:03      0.0894       0.498       0.297
  R0019767             JUNCTION     0.000    2.611     0  06:05           0        4.03      -0.003
  R0019768             JUNCTION     0.000    2.593     0  06:05           0        4.03       0.003
  R0021453             JUNCTION     0.122    0.617     0  06:04       0.107       0.111      -1.520
  R0019839             JUNCTION     0.271    0.405     0  06:03       0.264       0.492       0.030
  R0019717             JUNCTION     0.330    1.636     0  06:05       0.332        2.13       0.026
  R0019252             JUNCTION     0.159    0.177     0  06:05       0.145       0.147      -0.037
  R0019721             JUNCTION     0.046    0.168     0  06:03      0.0375        0.16       0.012
  R0019942             JUNCTION     0.000    0.123     0  06:01           0       0.217      -0.042
  R0019206             JUNCTION     0.000    0.123     0  06:05           0     0.00407       0.599
  R0019840             JUNCTION     0.000    0.550     0  06:03           0       0.834      -0.038
  R0043702             JUNCTION     0.271    0.734     0  06:03       0.264         1.1       0.265
  R0019723             JUNCTION     0.115    0.154     0  06:04       0.101       0.128      -0.112
  R0019724             JUNCTION     0.033    0.058     0  06:02      0.0265      0.0268      -0.262
  R0021433             JUNCTION     0.166    0.166     0  06:05       0.152       0.152      -0.057
  R0021435             JUNCTION     0.108    0.179     0  06:05      0.0934       0.226       0.019
  R0019769             OUTFALL      0.000    2.605     0  06:06           0        4.03       0.000
  
  
  **********************
  Node Surcharge Summary
  **********************
  
  Surcharging occurs when water rises above the top of the highest conduit.
  ---------------------------------------------------------------------
                                               Max. Height   Min. Depth
                                   Hours       Above Crown    Below Rim
  Node                 Type      Surcharged         Meters       Meters
  ---------------------------------------------------------------------
  R0019466             JUNCTION        0.27          2.510        0.000
  R0019468             JUNCTION        0.26          2.430        0.000
  R0019831             JUNCTION        0.17          1.360        0.000
  R0019825             JUNCTION        0.21          1.200        0.000
  R0019843             JUNCTION        0.12          1.202        1.418
  R0019368             JUNCTION        0.15          1.050        0.000
  R0019369             JUNCTION        0.04          0.410        0.640
  R0019345             JUNCTION        0.17          1.750        0.000
  R0019346             JUNCTION        0.14          1.740        0.000
  R0043600             JUNCTION        0.16          2.393        0.187
  R0019203             JUNCTION        0.07          1.686        0.294
  R0043594             JUNCTION        0.05          1.820        0.000
  R0021458             JUNCTION        0.06          1.689        0.391
  R0019202             JUNCTION        0.06          1.708        0.292
  R0019373             JUNCTION        0.18          2.500        0.000
  R0019254             JUNCTION        0.19          1.830        0.000
  R0019716             JUNCTION        0.09          1.570        0.150
  R0019946             JUNCTION        0.13          1.520        0.000
  R0013935             JUNCTION        0.19          1.320        0.000
  R0019939             JUNCTION        0.26          1.620        0.000
  R0019944             JUNCTION        0.08          0.983        0.547
  R0043703             JUNCTION        0.07          1.163        0.157
  R0019945             JUNCTION        0.08          1.043        0.417
  R0039621             JUNCTION        0.09          1.060        0.000
  R0019838             JUNCTION        0.10          1.300        0.000
  R0039606             JUNCTION        0.06          1.698        0.302
  R0019849             JUNCTION        0.28          1.607        0.323
  R0019718             JUNCTION        0.08          1.736        0.264
  R0021442             JUNCTION        0.29          1.750        0.000
  R0019247             JUNCTION        0.18          1.860        0.000
  R0019719             JUNCTION        0.12          1.771        0.029
  R0021453             JUNCTION        0.04          1.500        0.000
  R0019839             JUNCTION        0.10          1.505        0.145
  R0019717             JUNCTION        0.07          1.564        0.286
  R0019252             JUNCTION        0.16          1.640        0.000
  R0019721             JUNCTION        0.14          1.560        0.000
  R0019942             JUNCTION        0.23          1.534        0.116
  R0019206             JUNCTION        0.02          0.515        1.195
  R0019840             JUNCTION        0.13          1.622        0.948
  R0043702             JUNCTION        0.15          1.818        1.092
  R0019723             JUNCTION        0.11          1.320        0.000
  R0019724             JUNCTION        0.11          1.420        0.030
  R0021433             JUNCTION        0.22          1.850        0.000
  R0021435             JUNCTION        0.26          1.810        0.000
  
  
  *********************
  Node Flooding Summary
  *********************
  
  Flooding refers to all water that overflows a node, whether it ponds or not.
  --------------------------------------------------------------------------
                                                             Total   Maximum
                                 Maximum   Time of Max       Flood    Ponded
                        Hours       Rate    Occurrence      Volume     Depth
  Node                 Flooded       CMS   days hr:min    10^6 ltr    Meters
  --------------------------------------------------------------------------
  R0019466                0.04     0.137      0  06:05       0.010     0.000
  R0019468                0.04     0.037      0  06:05       0.003     0.000
  R0019831                0.07     0.051      0  06:05       0.007     0.000
  R0019825                0.11     0.199      0  06:05       0.050     0.000
  R0019368                0.01     0.035      0  06:05       0.000     0.000
  R0019345                0.01     0.044      0  06:05       0.001     0.000
  R0019346                0.01     0.029      0  06:05       0.000     0.000
  R0043594                0.01     0.156      0  06:04       0.000     0.000
  R0019373                0.01     0.041      0  06:05       0.000     0.000
  R0019254                0.03     0.014      0  06:05       0.001     0.000
  R0019946                0.01     0.038      0  06:05       0.000     0.000
  R0013935                0.08     0.088      0  06:05       0.014     0.000
  R0019939                0.01     0.015      0  06:05       0.000     0.000
  R0039621                0.06     0.255      0  06:05       0.039     0.000
  R0019838                0.02     0.039      0  06:05       0.001     0.000
  R0021442                0.11     0.194      0  06:05       0.036     0.000
  R0019247                0.01     0.103      0  06:05       0.001     0.000
  R0021453                0.01     0.124      0  06:04       0.001     0.000
  R0019252                0.09     0.177      0  06:05       0.034     0.000
  R0019721                0.01     0.063      0  06:05       0.001     0.000
  R0019723                0.03     0.066      0  06:05       0.005     0.000
  R0021433                0.10     0.095      0  06:05       0.019     0.000
  R0021435                0.12     0.107      0  06:05       0.030     0.000
  
  
  ***********************
  Outfall Loading Summary
  ***********************
  
  -----------------------------------------------------------
                         Flow       Avg       Max       Total
                         Freq      Flow      Flow      Volume
  Outfall Node           Pcnt       CMS       CMS    10^6 ltr
  -----------------------------------------------------------
  R0019769              18.35     0.081     2.605       4.032
  -----------------------------------------------------------
  System                18.35     0.081     2.605       4.032
  
  
  ********************
  Link Flow Summary
  ********************
  
  -----------------------------------------------------------------------------
                                 Maximum  Time of Max   Maximum    Max/    Max/
                                  |Flow|   Occurrence   |Veloc|    Full    Full
  Link                 Type          CMS  days hr:min     m/sec    Flow   Depth
  -----------------------------------------------------------------------------
  H0014431             CONDUIT     0.089     0  06:02      1.25    1.64    1.00
  H0014433             CONDUIT     0.100     0  06:05      1.42    1.28    1.00
  H0014352             CONDUIT     2.687     0  06:05      4.22    1.10    1.00
  H0014373             CONDUIT     2.629     0  06:05      4.36    1.21    1.00
  H0017981             CONDUIT     0.164     0  06:02      2.32    4.63    1.00
  H0017755             CONDUIT     0.250     0  06:04      1.99    2.02    1.00
  H0017791             CONDUIT     0.473     0  06:05      0.74    0.69    1.00
  H0017357             CONDUIT     0.219     0  06:03      3.10    3.50    1.00
  H0018216             CONDUIT     0.162     0  06:02      2.30    2.96    1.00
  H0016792             CONDUIT     1.817     0  06:05      2.86    1.04    1.00
  H0019507             CONDUIT     0.088     0  06:02      1.24    1.22    1.00
  H0019998             CONDUIT     2.136     0  06:05      3.47    0.85    1.00
  H0019576             CONDUIT     1.946     0  06:05      3.06    1.31    1.00
  H0020087             CONDUIT     0.255     0  06:05      1.30    1.12    1.00
  H0020211             CONDUIT     1.805     0  06:05      2.84    4.50    1.00
  H0018982             CONDUIT     0.667     0  06:05      1.05    1.07    1.00
  H0018753             CONDUIT     0.082     0  06:03      1.16    1.16    1.00
  H0018845             CONDUIT     0.000     0  00:00      0.00    0.00    0.09
  H0018863             CONDUIT     0.125     0  06:02      1.77    2.94    1.00
  H0019156             CONDUIT     0.000     0  00:00      0.00    0.00    0.00
  H0018929             CONDUIT     0.952     0  06:05      1.50    0.83    1.00
  H0018440             CONDUIT     0.158     0  06:01      2.24    2.83    1.00
  H0018456             CONDUIT     0.311     0  06:03      2.48    1.89    1.00
  H0018968             CONDUIT     2.593     0  06:05      5.17    1.00    0.74
  H0022036             CONDUIT     0.498     0  06:04      0.78    0.39    1.00
  H0021806             CONDUIT     0.223     0  06:03      1.78    1.98    1.00
  H0022111             CONDUIT     0.185     0  06:03      0.94    1.32    1.00
  H0021440             CONDUIT     1.635     0  06:05      2.57    1.06    1.00
  H0021704             CONDUIT     1.119     0  06:05      1.76    2.13    1.00
  H0020521             CONDUIT     0.082     0  06:01      1.17    1.67    1.00
  H0020755             CONDUIT     0.161     0  06:03      1.28    1.78    1.00
  H0020530             CONDUIT     2.672     0  06:05      4.20    2.29    1.00
  H0020618             CONDUIT     2.035     0  06:05      3.35    1.26    1.00
  H0021163             CONDUIT     0.123     0  06:01      1.75    2.06    1.00
  H0020497             CONDUIT     0.123     0  06:05      1.74    0.27    1.00
  H0024325             CONDUIT     0.396     0  06:03      2.02    1.18    1.00
  H0023585             CONDUIT     0.706     0  06:03      3.60    1.62    1.00
  H0024098             CONDUIT     0.221     0  06:02      3.12    2.57    1.00
  H0024235             CONDUIT     0.399     0  06:03      2.03    1.63    1.00
  H0024282             CONDUIT     0.025     0  06:05      0.55    0.24    1.00
  H0024308             CONDUIT     2.605     0  06:06      5.91    0.76    0.66
  H0024498             CONDUIT     0.165     0  06:02      2.34    2.56    1.00
  H0026990             CONDUIT     0.125     0  06:03      1.00    0.95    1.00
  H0041650             CONDUIT     0.838     0  06:05      1.32    0.98    1.00
  H0041011             CONDUIT     0.115     0  06:01      1.63    1.14    1.00
  H0045103             CONDUIT     0.641     0  06:05      1.03    0.80    1.00
  H0045104             CONDUIT     2.611     0  06:05      4.86    0.93    0.79
  H0045105             CONDUIT     0.042     0  06:04      0.59    0.72    1.00
  H0045106             CONDUIT     0.509     0  06:03      2.59    0.68    1.00
  H0045107             CONDUIT     0.072     0  06:07      1.01    1.18    1.00
  H0045108             CONDUIT     0.089     0  06:09      1.25    1.59    1.00
  
  
  ***************************
  Flow Classification Summary
  ***************************
  
  -------------------------------------------------------------------------------------
                      Adjusted    ---------- Fraction of Time in Flow Class ---------- 
                       /Actual         Up    Down  Sub   Sup   Up    Down  Norm  Inlet 
  Conduit               Length    Dry  Dry   Dry   Crit  Crit  Crit  Crit  Ltd   Ctrl  
  -------------------------------------------------------------------------------------
  H0014431                1.00   0.03  0.00  0.00  0.97  0.00  0.00  0.00  0.96  0.00
  H0014433                1.00   0.03  0.00  0.00  0.97  0.00  0.00  0.00  0.96  0.00
  H0014352                1.00   0.03  0.00  0.00  0.81  0.16  0.00  0.00  0.96  0.00
  H0014373                1.00   0.03  0.00  0.00  0.79  0.18  0.00  0.00  0.78  0.00
  H0017981                1.00   0.03  0.00  0.00  0.00  0.00  0.00  0.96  0.00  0.00
  H0017755                1.00   0.03  0.00  0.00  0.00  0.00  0.00  0.96  0.00  0.00
  H0017791                1.00   0.03  0.00  0.00  0.97  0.00  0.00  0.00  0.96  0.00
  H0017357                1.00   0.03  0.96  0.00  0.00  0.00  0.00  0.00  0.92  0.00
  H0018216                1.00   0.03  0.78  0.00  0.18  0.00  0.00  0.00  0.96  0.00
  H0016792                1.00   0.03  0.77  0.00  0.19  0.00  0.00  0.00  0.96  0.00
  H0019507                1.00   0.03  0.00  0.00  0.97  0.00  0.00  0.00  0.96  0.00
  H0019998                1.00   0.03  0.00  0.00  0.79  0.18  0.00  0.00  0.19  0.00
  H0019576                1.00   0.03  0.00  0.00  0.81  0.15  0.00  0.00  0.17  0.00
  H0020087                1.00   0.03  0.95  0.00  0.02  0.00  0.00  0.00  0.92  0.00
  H0020211                1.00   0.03  0.00  0.00  0.97  0.00  0.00  0.00  0.77  0.00
  H0018982                1.00   0.03  0.00  0.00  0.97  0.00  0.00  0.00  0.80  0.00
  H0018753                1.00   0.03  0.00  0.00  0.97  0.00  0.00  0.00  0.96  0.00
  H0018845                1.00   0.08  0.92  0.00  0.00  0.00  0.00  0.00  0.00  0.00
  H0018863                1.00   0.03  0.00  0.00  0.97  0.00  0.00  0.00  0.96  0.00
  H0019156                1.00   1.00  0.00  0.00  0.00  0.00  0.00  0.00  0.00  0.00
  H0018929                1.00   0.03  0.78  0.00  0.19  0.00  0.00  0.00  0.96  0.00
  H0018440                1.00   0.03  0.00  0.00  0.97  0.00  0.00  0.00  0.96  0.00
  H0018456                1.00   0.03  0.00  0.00  0.97  0.00  0.00  0.00  0.95  0.00
  H0018968                1.00   0.03  0.77  0.00  0.01  0.18  0.00  0.00  0.79  0.00
  H0022036                1.00   0.03  0.00  0.00  0.05  0.06  0.00  0.85  0.04  0.00
  H0021806                1.00   0.03  0.78  0.00  0.18  0.00  0.00  0.00  0.81  0.00
  H0022111                1.00   0.03  0.00  0.00  0.97  0.00  0.00  0.00  0.00  0.00
  H0021440                1.00   0.03  0.00  0.00  0.81  0.16  0.00  0.00  0.02  0.00
  H0021704                1.00   0.03  0.00  0.00  0.00  0.00  0.00  0.96  0.00  0.00
  H0020521                1.00   0.03  0.00  0.00  0.97  0.00  0.00  0.00  0.96  0.00
  H0020755                1.00   0.03  0.79  0.00  0.18  0.00  0.00  0.00  0.96  0.00
  H0020530                1.00   0.03  0.00  0.00  0.81  0.16  0.00  0.00  0.02  0.00
  H0020618                1.00   0.03  0.00  0.00  0.80  0.17  0.00  0.00  0.81  0.00
  H0021163                1.00   0.03  0.00  0.00  0.95  0.02  0.00  0.00  0.79  0.00
  H0020497                1.20   0.03  0.96  0.00  0.01  0.00  0.00  0.00  0.92  0.00
  H0024325                1.00   0.03  0.00  0.00  0.81  0.16  0.00  0.00  0.80  0.00
  H0023585                1.00   0.03  0.00  0.00  0.00  0.00  0.00  0.96  0.00  0.00
  H0024098                1.00   0.03  0.78  0.00  0.18  0.00  0.00  0.00  0.96  0.00
  H0024235                1.00   0.03  0.00  0.00  0.00  0.00  0.00  0.96  0.00  0.00
  H0024282                1.00   0.08  0.00  0.00  0.92  0.00  0.00  0.00  0.00  0.00
  H0024308                1.00   0.03  0.00  0.00  0.77  0.19  0.00  0.00  0.11  0.00
  H0024498                1.00   0.03  0.00  0.00  0.00  0.00  0.00  0.96  0.00  0.00
  H0026990                1.00   0.03  0.00  0.00  0.97  0.00  0.00  0.00  0.96  0.00
  H0041650                1.00   0.81  0.01  0.00  0.18  0.00  0.00  0.00  0.95  0.00
  H0041011                1.00   0.03  0.00  0.00  0.96  0.00  0.00  0.00  0.96  0.00
  H0045103                1.00   0.03  0.00  0.00  0.97  0.00  0.00  0.00  0.81  0.00
  H0045104                1.00   0.03  0.00  0.00  0.78  0.18  0.00  0.00  0.19  0.00
  H0045105                1.00   0.03  0.00  0.00  0.97  0.00  0.00  0.00  0.96  0.00
  H0045106                1.00   0.03  0.78  0.00  0.02  0.16  0.00  0.00  0.96  0.00
  H0045107                1.00   0.03  0.00  0.00  0.97  0.00  0.00  0.00  0.96  0.00
  H0045108                1.00   0.03  0.00  0.00  0.97  0.00  0.00  0.00  0.96  0.00
  
  
  *************************
  Conduit Surcharge Summary
  *************************
  
  ----------------------------------------------------------------------------
                                                           Hours        Hours 
                         --------- Hours Full --------   Above Full   Capacity
  Conduit                Both Ends  Upstream  Dnstream   Normal Flow   Limited
  ----------------------------------------------------------------------------
  H0014431                    0.26      0.27      0.26      0.29         0.26
  H0014433                    0.17      0.17      0.21      0.09         0.08
  H0014352                    0.12      0.12      0.15      0.04         0.04
  H0014373                    0.01      0.04      0.01      0.10         0.02
  H0017981                    0.15      0.17      0.15      0.31         0.15
  H0017755                    0.15      0.16      0.15      0.18         0.14
  H0017791                    0.05      0.05      0.06      0.01         0.01
  H0017357                    0.13      0.13      0.18      0.13         0.01
  H0018216                    0.17      0.19      0.17      0.23         0.18
  H0016792                    0.09      0.09      0.13      0.01         0.01
  H0019507                    0.19      0.19      0.26      0.03         0.02
  H0019998                    0.08      0.08      0.12      0.01         0.01
  H0019576                    0.07      0.07      0.08      0.09         0.05
  H0020087                    0.09      0.09      0.10      0.02         0.01
  H0020211                    0.07      0.13      0.07      0.27         0.09
  H0018982                    0.06      0.06      0.06      0.01         0.01
  H0018753                    0.18      0.18      0.27      0.01         0.01
  H0018863                    0.26      0.26      0.28      0.16         0.16
  H0018929                    0.07      0.07      0.08      0.01         0.01
  H0018440                    0.22      0.29      0.22      0.32         0.26
  H0018456                    0.14      0.14      0.14      0.15         0.13
  H0022036                    0.04      0.04      0.05      0.01         0.01
  H0021806                    0.16      0.18      0.16      0.19         0.16
  H0022111                    0.10      0.10      0.10      0.04         0.03
  H0021440                    0.07      0.07      0.09      0.01         0.01
  H0021704                    0.07      0.08      0.07      0.16         0.06
  H0020521                    0.16      0.16      0.19      0.07         0.06
  H0020755                    0.14      0.14      0.14      0.07         0.08
  H0020530                    0.04      0.15      0.04      0.19         0.14
  H0020618                    0.07      0.08      0.08      0.10         0.07
  H0021163                    0.21      0.21      0.23      0.18         0.15
  H0020497                    0.02      0.02      0.22      0.01         0.01
  H0024325                    0.10      0.10      0.13      0.01         0.01
  H0023585                    0.13      0.15      0.13      0.15         0.13
  H0024098                    0.28      0.28      0.33      0.22         0.22
  H0024235                    0.11      0.12      0.12      0.10         0.09
  H0024282                    0.01      0.01      0.02      0.01         0.01
  H0024498                    0.13      0.26      0.13      0.31         0.21
  H0026990                    0.11      0.11      0.14      0.01         0.01
  H0041650                    0.06      0.06      0.07      0.01         0.01
  H0041011                    0.23      0.23      0.28      0.03         0.03
  H0045103                    0.06      0.06      0.06      0.01         0.01
  H0045105                    0.11      0.11      0.12      0.01         0.01
  H0045106                    0.13      0.13      0.15      0.01         0.01
  H0045107                    0.22      0.22      0.26      0.11         0.11
  H0045108                    0.26      0.26      0.29      0.20         0.19
  

  Analysis begun on:  Fri Mar 22 15:56:55 2024
  Analysis ended on:  Fri Mar 22 15:57:04 2024
  Total elapsed time: 00:00:09