
  EPA STORM WATER MANAGEMENT MODEL - VERSION 5.2 (Build 5.2.4)
  PYSWMM TOOLKIT API - VERSION v1.0 (2023-11-27)
  ------------------------------------------------------------

  Gievenbeck_2015-08-15 19 15 00_hN43 18 
  
  ****************
  Analysis Options
  ****************
  Flow Units ............... CMS
  Process Models:
    Rainfall/Runoff ........ YES
    RDII ................... NO
    Snowmelt ............... NO
    Groundwater ............ NO
    Flow Routing ........... YES
    Ponding Allowed ........ NO
    Water Quality .......... NO
  Infiltration Method ...... HORTON
  Flow Routing Method ...... DYNWAVE
  Surcharge Method ......... SLOT
  Starting Date ............ 01/01/2024 00:00:00
  Ending Date .............. 01/04/2024 04:00:00
  Antecedent Dry Days ...... 14.0
  Report Time Step ......... 00:01:00
  Wet Time Step ............ 00:01:00
  Dry Time Step ............ 00:01:00
  Routing Time Step ........ 1.00 sec
  Variable Time Step ....... YES
  Maximum Trials ........... 8
  Number of Threads ........ 1
  Head Tolerance ........... 0.001500 m
  
  
  **************************        Volume         Depth
  Runoff Quantity Continuity     hectare-m            mm
  **************************     ---------       -------
  Total Precipitation ......         0.437        43.180
  Evaporation Loss .........         0.010         0.949
  Infiltration Loss ........         0.156        15.393
  Surface Runoff ...........         0.272        26.871
  Final Storage ............         0.000         0.000
  Continuity Error (%) .....        -0.076
  
  
  **************************        Volume        Volume
  Flow Routing Continuity        hectare-m      10^6 ltr
  **************************     ---------     ---------
  Dry Weather Inflow .......         0.000         0.000
  Wet Weather Inflow .......         0.272         2.720
  Groundwater Inflow .......         0.000         0.000
  RDII Inflow ..............         0.000         0.000
  External Inflow ..........         0.000         0.000
  External Outflow .........         0.267         2.667
  Flooding Loss ............         0.005         0.053
  Evaporation Loss .........         0.000         0.000
  Exfiltration Loss ........         0.000         0.000
  Initial Stored Volume ....         0.000         0.000
  Final Stored Volume ......         0.000         0.000
  Continuity Error (%) .....         0.000
  
  
  ***************************
  Time-Step Critical Elements
  ***************************
  None
  
  
  ********************************
  Highest Flow Instability Indexes
  ********************************
  All links are stable.
  
  
  *********************************
  Most Frequent Nonconverging Nodes
  *********************************
  Convergence obtained at all time steps.
  
  
  *************************
  Routing Time Step Summary
  *************************
  Minimum Time Step           :     0.28 sec
  Average Time Step           :     1.00 sec
  Maximum Time Step           :     1.00 sec
  % of Time in Steady State   :     0.00
  Average Iterations per Step :     2.00
  % of Steps Not Converging   :     0.00
  Time Step Frequencies       :
      1.000 -  0.871 sec      :    99.99 %
      0.871 -  0.758 sec      :     0.00 %
      0.758 -  0.660 sec      :     0.00 %
      0.660 -  0.574 sec      :     0.00 %
      0.574 -  0.500 sec      :     0.00 %
  
  
  ***************************
  Subcatchment Runoff Summary
  ***************************
  
  ------------------------------------------------------------------------------------------------------------------------------
                            Total      Total      Total      Total     Imperv       Perv      Total       Total     Peak  Runoff
                           Precip      Runon       Evap      Infil     Runoff     Runoff     Runoff      Runoff   Runoff   Coeff
  Subcatchment                 mm         mm         mm         mm         mm         mm         mm    10^6 ltr      CMS
  ------------------------------------------------------------------------------------------------------------------------------
  EZG_368                   43.18       0.00       0.94      15.52      20.67       9.18      26.75        0.11     0.10   0.619
  EZG_392                   43.18       0.00       0.94      15.34      20.67       9.36      26.93        0.09     0.08   0.624
  EZG_352                   43.18       0.00       0.95      15.81      20.66       8.89      26.45        0.16     0.13   0.613
  EZG_372                   43.18       0.00       0.93      14.79      20.69       9.92      27.50        0.04     0.04   0.637
  EZG_416                   43.18       0.00       0.94      15.27      20.67       9.43      27.01        0.08     0.07   0.625
  EZG_388                   43.18       0.00       0.94      15.60      20.67       9.10      26.67        0.12     0.11   0.618
  EZG_394                   43.18       0.00       0.94      15.24      20.67       9.47      27.04        0.08     0.07   0.626
  EZG_400                   43.18       0.00       0.94      15.19      20.68       9.52      27.09        0.07     0.06   0.627
  EZG_390                   43.18       0.00       0.94      15.33      20.67       9.38      26.95        0.09     0.08   0.624
  EZG_350                   43.18       0.00       0.94      15.60      20.67       9.10      26.66        0.12     0.11   0.617
  EZG_370                   43.18       0.00       0.94      15.42      20.67       9.28      26.85        0.10     0.09   0.622
  EZG_398                   43.18       0.00       0.93      14.63      20.69      10.09      27.67        0.03     0.03   0.641
  EZG_382                   43.18       0.00       0.93      14.57      20.69      10.14      27.73        0.02     0.02   0.642
  EZG_374                   43.18       0.00       1.14      12.30      24.79       8.71      29.78        0.11     0.10   0.690
  EZG_412                   43.18       0.00       0.92      14.23      20.71      10.49      28.09        0.01     0.01   0.650
  EZG_344                   43.18       0.00       0.94      15.17      20.68       9.53      27.11        0.07     0.06   0.628
  EZG_376                   43.18       0.00       0.93      15.02      20.68       9.69      27.26        0.05     0.05   0.631
  EZG_356                   43.18       0.00       0.95      15.87      20.66       8.83      26.39        0.17     0.14   0.611
  EZG_386                   43.18       0.00       0.95      16.06      20.65       8.64      26.19        0.21     0.17   0.607
  EZG_380                   43.18       0.00       0.94      15.48      20.67       9.22      26.79        0.10     0.09   0.620
  EZG_378                   43.18       0.00       0.94      15.38      20.67       9.32      26.89        0.09     0.08   0.623
  EZG_414                   43.18       0.00       0.93      14.56      20.69      10.15      27.74        0.02     0.02   0.642
  EZG_402                   43.18       0.00       0.94      15.35      20.67       9.36      26.93        0.09     0.08   0.624
  EZG_358                   43.18       0.00       0.95      15.86      20.66       8.84      26.40        0.17     0.14   0.611
  EZG_364                   43.18       0.00       0.95      15.86      20.66       8.83      26.40        0.17     0.14   0.611
  EZG_410                   43.18       0.00       0.94      15.05      20.68       9.65      27.23        0.06     0.05   0.631
  EZG_366                   43.18       0.00       0.94      15.14      20.68       9.57      27.14        0.06     0.06   0.629
  EZG_18259                 43.18       0.00       0.94      15.13      20.68       9.57      27.15        0.06     0.06   0.629
  EZG_18258                 43.18       0.00       0.92      14.40      20.70      10.31      27.91        0.02     0.02   0.646
  EZG_346                   43.18       0.00       0.92      15.75      20.26       9.32      26.54        0.10     0.09   0.615
  EZG_348                   43.18       0.00       0.92      15.40      20.27       9.68      26.90        0.06     0.06   0.623
  
  
  ******************
  Node Depth Summary
  ******************
  
  ---------------------------------------------------------------------------------
                                 Average  Maximum  Maximum  Time of Max    Reported
                                   Depth    Depth      HGL   Occurrence   Max Depth
  Node                 Type       Meters   Meters   Meters  days hr:min      Meters
  ---------------------------------------------------------------------------------
  R0019466             JUNCTION     0.01     1.22    70.67     0  03:15        1.22
  R0019468             JUNCTION     0.01     1.20    70.51     0  03:15        1.19
  R0019831             JUNCTION     0.00     1.47    70.64     0  03:10        1.47
  R0019825             JUNCTION     0.01     1.50    70.34     0  03:08        1.50
  R0019843             JUNCTION     0.01     1.11    68.74     0  03:12        1.11
  R0019368             JUNCTION     0.01     1.35    68.14     0  03:12        1.35
  R0019369             JUNCTION     0.01     0.73    67.32     0  03:15        0.72
  R0019370             JUNCTION     0.00     0.59    66.49     0  03:15        0.58
  R0019345             JUNCTION     0.00     0.94    70.84     0  03:15        0.94
  R0019346             JUNCTION     0.00     0.72    70.52     0  03:15        0.72
  R0043600             JUNCTION     0.00     0.58    70.25     0  03:15        0.58
  R0019203             JUNCTION     0.00     0.59    70.13     0  03:15        0.59
  R0043594             JUNCTION     0.00     0.45    70.18     0  03:15        0.45
  R0021458             JUNCTION     0.00     0.51    70.16     0  03:15        0.51
  R0019202             JUNCTION     0.00     0.56    70.14     0  03:15        0.56
  R0019373             JUNCTION     0.00     0.96    70.63     0  03:15        0.95
  R0019254             JUNCTION     0.01     1.70    71.74     0  03:15        1.70
  R0019716             JUNCTION     0.00     0.67    69.68     0  03:15        0.67
  R0019946             JUNCTION     0.01     0.93    69.55     0  03:15        0.93
  R0013935             JUNCTION     0.00     1.26    70.09     0  03:10        1.25
  R0019939             JUNCTION     0.01     1.32    69.89     0  03:10        1.31
  R0019944             JUNCTION     0.00     0.59    68.87     0  03:11        0.56
  R0043703             JUNCTION     0.01     0.70    69.30     0  03:15        0.70
  R0019945             JUNCTION     0.01     0.71    69.11     0  03:15        0.71
  R0039621             JUNCTION     0.00     0.67    70.24     0  03:15        0.65
  R0019838             JUNCTION     0.00     0.78    70.24     0  03:15        0.73
  R0039606             JUNCTION     0.00     0.55    70.14     0  03:15        0.55
  R0019204             JUNCTION     0.00     0.00    69.91     0  00:00        0.00
  R0019205             JUNCTION     0.00     0.00    69.62     0  00:00        0.00
  R0019849             JUNCTION     0.01     1.16    69.68     0  03:15        1.16
  R0019371             JUNCTION     0.00     0.00    70.41     0  00:00        0.00
  R0019718             JUNCTION     0.01     0.68    70.10     0  03:15        0.68
  R0021442             JUNCTION     0.01     2.05    72.10     0  03:07        2.05
  R0019247             JUNCTION     0.01     1.03    70.91     0  03:15        1.03
  R0019719             JUNCTION     0.00     0.58    70.26     0  03:15        0.58
  R0019767             JUNCTION     0.00     0.62    65.35     0  03:12        0.62
  R0019768             JUNCTION     0.00     0.52    64.29     0  03:12        0.52
  R0021453             JUNCTION     0.00     0.23    70.18     0  03:14        0.23
  R0019839             JUNCTION     0.00     0.77    70.16     0  03:15        0.76
  R0019717             JUNCTION     0.00     0.62    69.96     0  03:15        0.62
  R0019252             JUNCTION     0.01     1.88    72.07     0  03:15        1.88
  R0019721             JUNCTION     0.00     0.72    70.59     0  03:11        0.72
  R0019942             JUNCTION     0.00     1.16    69.81     0  03:15        1.16
  R0019206             JUNCTION     0.00     0.00    69.07     0  00:00        0.00
  R0019840             JUNCTION     0.00     0.92    69.89     0  03:15        0.91
  R0043702             JUNCTION     0.00     1.11    69.81     0  03:15        1.11
  R0019723             JUNCTION     0.00     0.57    70.65     0  03:11        0.56
  R0019724             JUNCTION     0.00     0.49    70.65     0  03:11        0.49
  R0021433             JUNCTION     0.01     2.15    72.54     0  03:07        2.15
  R0021435             JUNCTION     0.01     2.11    72.29     0  03:07        2.11
  R0019769             OUTFALL      0.00     0.52    63.90     0  03:15        0.52
  
  
  *******************
  Node Inflow Summary
  *******************
  
  -------------------------------------------------------------------------------------------------
                                  Maximum  Maximum                  Lateral       Total        Flow
                                  Lateral    Total  Time of Max      Inflow      Inflow     Balance
                                   Inflow   Inflow   Occurrence      Volume      Volume       Error
  Node                 Type           CMS      CMS  days hr:min    10^6 ltr    10^6 ltr     Percent
  -------------------------------------------------------------------------------------------------
  R0019466             JUNCTION     0.097    0.097     0  03:10       0.111       0.148       0.022
  R0019468             JUNCTION     0.060    0.138     0  03:10       0.065       0.202      -0.001
  R0019831             JUNCTION     0.079    0.079     0  03:10      0.0872      0.0872       0.008
  R0019825             JUNCTION     0.079    0.157     0  03:10      0.0875       0.175       0.014
  R0019843             JUNCTION     0.000    2.139     0  03:15           0        2.67       0.010
  R0019368             JUNCTION     0.000    2.138     0  03:15           0        2.67      -0.007
  R0019369             JUNCTION     0.000    2.140     0  03:15           0        2.67      -0.011
  R0019370             JUNCTION     0.000    2.136     0  03:15           0        2.67       0.004
  R0019345             JUNCTION     0.000    0.145     0  03:15           0       0.171       0.031
  R0019346             JUNCTION     0.012    0.249     0  03:10      0.0112       0.288       0.010
  R0043600             JUNCTION     0.000    0.207     0  03:10           0       0.289       0.006
  R0019203             JUNCTION     0.025    0.649     0  03:15      0.0245       0.768      -0.012
  R0043594             JUNCTION     0.132    0.192     0  03:10       0.156       0.225      -0.024
  R0021458             JUNCTION     0.106    0.287     0  03:15       0.122       0.347      -0.001
  R0019202             JUNCTION     0.036    0.425     0  03:15      0.0372       0.453      -0.243
  R0019373             JUNCTION     0.086    0.111     0  03:15      0.0963       0.107       0.972
  R0019254             JUNCTION     0.072    0.149     0  03:10      0.0787       0.171       0.013
  R0019716             JUNCTION     0.106    1.298     0  03:15       0.122        1.55      -0.012
  R0019946             JUNCTION     0.000    1.296     0  03:15           0        1.55       0.006
  R0013935             JUNCTION     0.069    0.069     0  03:10       0.075       0.075       0.001
  R0019939             JUNCTION     0.028    0.094     0  03:10      0.0274       0.102      -0.018
  R0019944             JUNCTION     0.064    1.616     0  03:15      0.0698        1.96       0.011
  R0043703             JUNCTION     0.077    1.366     0  03:15      0.0853        1.63       0.004
  R0019945             JUNCTION     0.000    1.558     0  03:15           0        1.89      -0.003
  R0039621             JUNCTION     0.000    0.021     0  03:13           0     0.00318       0.512
  R0019838             JUNCTION     0.142    0.142     0  03:14       0.169       0.172      -0.073
  R0039606             JUNCTION     0.000    0.284     0  03:14           0       0.347       0.032
  R0019204             JUNCTION     0.000    0.000     0  00:00           0           0       0.000 ltr
  R0019205             JUNCTION     0.000    0.000     0  00:00           0           0       0.000 ltr
  R0019849             JUNCTION     0.000    0.199     0  03:10           0       0.258       0.008
  R0019371             JUNCTION     0.000    0.000     0  00:00           0           0       0.000 ltr
  R0019718             JUNCTION     0.092    0.736     0  03:15       0.104       0.872      -0.466
  R0021442             JUNCTION     0.103    0.175     0  03:10       0.113        0.24       0.011
  R0019247             JUNCTION     0.051    0.208     0  03:10      0.0544       0.289       0.026
  R0019719             JUNCTION     0.054    0.300     0  03:10      0.0572       0.345       0.231
  R0019767             JUNCTION     0.000    2.140     0  03:15           0        2.67      -0.005
  R0019768             JUNCTION     0.000    2.142     0  03:15           0        2.67       0.008
  R0021453             JUNCTION     0.063    0.063     0  03:10      0.0686      0.0686      -0.037
  R0019839             JUNCTION     0.141    0.274     0  03:10       0.167       0.336       0.002
  R0019717             JUNCTION     0.172    1.199     0  03:15       0.209        1.43       0.191
  R0019252             JUNCTION     0.082    0.082     0  03:10      0.0921      0.0921      -0.049
  R0019721             JUNCTION     0.025    0.098     0  03:10      0.0241       0.106       0.016
  R0019942             JUNCTION     0.000    0.119     0  03:08           0       0.156      -0.030
  R0019206             JUNCTION     0.000    0.000     0  00:00           0           0       0.000 ltr
  R0019840             JUNCTION     0.000    0.409     0  03:10           0       0.538       0.015
  R0043702             JUNCTION     0.141    0.559     0  03:09       0.167       0.706       0.078
  R0019723             JUNCTION     0.060    0.075     0  03:10      0.0645      0.0816      -0.085
  R0019724             JUNCTION     0.018    0.018     0  03:10      0.0171      0.0171      -0.037
  R0021433             JUNCTION     0.086    0.086     0  03:10      0.0966      0.0966      -0.091
  R0021435             JUNCTION     0.056    0.127     0  03:10      0.0598       0.152       0.022
  R0019769             OUTFALL      0.000    2.144     0  03:15           0        2.67       0.000
  
  
  **********************
  Node Surcharge Summary
  **********************
  
  Surcharging occurs when water rises above the top of the highest conduit.
  ---------------------------------------------------------------------
                                               Max. Height   Min. Depth
                                   Hours       Above Crown    Below Rim
  Node                 Type      Surcharged         Meters       Meters
  ---------------------------------------------------------------------
  R0019466             JUNCTION        0.36          0.923        1.587
  R0019468             JUNCTION        0.36          0.896        1.534
  R0019831             JUNCTION        0.24          1.174        0.186
  R0019825             JUNCTION        0.29          1.200        0.000
  R0019843             JUNCTION        0.10          0.214        2.406
  R0019368             JUNCTION        0.16          0.447        0.603
  R0019345             JUNCTION        0.23          0.640        1.110
  R0019346             JUNCTION        0.16          0.316        1.424
  R0043600             JUNCTION        0.20          0.183        2.397
  R0019373             JUNCTION        0.25          0.660        1.840
  R0019254             JUNCTION        0.27          1.399        0.431
  R0019946             JUNCTION        0.08          0.031        1.489
  R0013935             JUNCTION        0.25          0.965        0.355
  R0019939             JUNCTION        0.36          1.019        0.601
  R0039621             JUNCTION        0.03          0.173        0.887
  R0019838             JUNCTION        0.04          0.283        1.017
  R0019849             JUNCTION        0.37          0.865        1.065
  R0021442             JUNCTION        0.40          1.750        0.000
  R0019247             JUNCTION        0.25          0.633        1.227
  R0019719             JUNCTION        0.10          0.076        1.724
  R0019839             JUNCTION        0.05          0.266        1.384
  R0019252             JUNCTION        0.24          1.582        0.058
  R0019721             JUNCTION        0.15          0.318        1.242
  R0019942             JUNCTION        0.32          0.863        0.787
  R0019840             JUNCTION        0.12          0.416        2.154
  R0043702             JUNCTION        0.15          0.613        2.297
  R0019723             JUNCTION        0.10          0.168        1.152
  R0019724             JUNCTION        0.10          0.193        1.257
  R0021433             JUNCTION        0.31          1.850        0.000
  R0021435             JUNCTION        0.36          1.810        0.000
  
  
  *********************
  Node Flooding Summary
  *********************
  
  Flooding refers to all water that overflows a node, whether it ponds or not.
  --------------------------------------------------------------------------
                                                             Total   Maximum
                                 Maximum   Time of Max       Flood    Ponded
                        Hours       Rate    Occurrence      Volume     Depth
  Node                 Flooded       CMS   days hr:min    10^6 ltr    Meters
  --------------------------------------------------------------------------
  R0019825                0.14     0.050      0  03:10       0.019     0.000
  R0021442                0.13     0.019      0  03:10       0.005     0.000
  R0021433                0.13     0.014      0  03:10       0.004     0.000
  R0021435                0.15     0.055      0  03:10       0.025     0.000
  
  
  ***********************
  Outfall Loading Summary
  ***********************
  
  -----------------------------------------------------------
                         Flow       Avg       Max       Total
                         Freq      Flow      Flow      Volume
  Outfall Node           Pcnt       CMS       CMS    10^6 ltr
  -----------------------------------------------------------
  R0019769               5.10     0.192     2.144       2.667
  -----------------------------------------------------------
  System                 5.10     0.192     2.144       2.667
  
  
  ********************
  Link Flow Summary
  ********************
  
  -----------------------------------------------------------------------------
                                 Maximum  Time of Max   Maximum    Max/    Max/
                                  |Flow|   Occurrence   |Veloc|    Full    Full
  Link                 Type          CMS  days hr:min     m/sec    Flow   Depth
  -----------------------------------------------------------------------------
  H0014431             CONDUIT     0.078     0  03:10      1.10    1.44    1.00
  H0014433             CONDUIT     0.078     0  03:10      1.11    1.00    1.00
  H0014352             CONDUIT     2.138     0  03:15      3.36    0.88    1.00
  H0014373             CONDUIT     2.136     0  03:15      4.30    0.99    0.73
  H0017981             CONDUIT     0.146     0  03:15      2.06    4.12    1.00
  H0017755             CONDUIT     0.206     0  03:10      1.64    1.67    1.00
  H0017791             CONDUIT     0.186     0  03:15      0.63    0.27    0.54
  H0017357             CONDUIT     0.111     0  03:15      1.57    1.77    1.00
  H0018216             CONDUIT     0.145     0  03:15      2.05    2.64    1.00
  H0016792             CONDUIT     1.296     0  03:15      2.17    0.74    0.89
  H0019507             CONDUIT     0.067     0  03:10      0.95    0.93    1.00
  H0019998             CONDUIT     1.624     0  03:14      3.51    0.65    0.93
  H0019576             CONDUIT     1.365     0  03:15      2.56    0.92    0.78
  H0020087             CONDUIT     0.021     0  03:13      0.11    0.09    1.00
  H0020211             CONDUIT     1.296     0  03:15      2.15    3.23    0.90
  H0018982             CONDUIT     0.284     0  03:14      0.80    0.46    0.59
  H0018753             CONDUIT     0.032     0  03:23      0.58    0.46    1.00
  H0018845             CONDUIT     0.000     0  00:00      0.00    0.00    0.00
  H0018863             CONDUIT     0.094     0  03:10      1.32    2.20    1.00
  H0019156             CONDUIT     0.000     0  00:00      0.00    0.00    0.00
  H0018929             CONDUIT     0.648     0  03:15      1.38    0.56    0.70
  H0018440             CONDUIT     0.162     0  03:07      2.29    2.90    1.00
  H0018456             CONDUIT     0.248     0  03:11      1.98    1.51    1.00
  H0018968             CONDUIT     2.142     0  03:15      5.05    0.82    0.63
  H0022036             CONDUIT     0.063     0  03:10      0.48    0.05    0.36
  H0021806             CONDUIT     0.207     0  03:10      1.65    1.83    1.00
  H0022111             CONDUIT     0.144     0  03:16      0.92    1.03    1.00
  H0021440             CONDUIT     1.197     0  03:15      2.51    0.77    0.72
  H0021704             CONDUIT     0.734     0  03:15      1.60    1.40    0.70
  H0020521             CONDUIT     0.078     0  03:10      1.10    1.58    1.00
  H0020755             CONDUIT     0.096     0  03:10      0.77    1.06    1.00
  H0020530             CONDUIT     2.140     0  03:15      3.36    1.83    1.00
  H0020618             CONDUIT     1.558     0  03:15      3.26    0.97    0.71
  H0021163             CONDUIT     0.119     0  03:08      1.69    1.99    1.00
  H0020497             CONDUIT     0.000     0  00:00      0.00    0.00    1.00
  H0024325             CONDUIT     0.286     0  03:17      1.89    0.85    1.00
  H0023585             CONDUIT     0.533     0  03:11      2.71    1.22    1.00
  H0024098             CONDUIT     0.198     0  03:10      2.81    2.32    1.00
  H0024235             CONDUIT     0.298     0  03:11      1.52    1.22    1.00
  H0024282             CONDUIT     0.000     0  00:00      0.00    0.00    0.00
  H0024308             CONDUIT     2.144     0  03:15      5.66    0.63    0.57
  H0024498             CONDUIT     0.137     0  03:10      1.93    2.11    1.00
  H0026990             CONDUIT     0.075     0  03:10      0.74    0.56    1.00
  H0041650             CONDUIT     0.425     0  03:15      1.00    0.50    0.64
  H0041011             CONDUIT     0.116     0  03:08      1.64    1.15    1.00
  H0045103             CONDUIT     0.292     0  03:16      0.82    0.37    0.62
  H0045104             CONDUIT     2.140     0  03:15      4.71    0.76    0.67
  H0045105             CONDUIT     0.018     0  03:10      0.40    0.30    1.00
  H0045106             CONDUIT     0.419     0  03:09      2.37    0.56    1.00
  H0045107             CONDUIT     0.072     0  03:13      1.01    1.18    1.00
  H0045108             CONDUIT     0.093     0  03:17      1.31    1.67    1.00
  
  
  ***************************
  Flow Classification Summary
  ***************************
  
  -------------------------------------------------------------------------------------
                      Adjusted    ---------- Fraction of Time in Flow Class ---------- 
                       /Actual         Up    Down  Sub   Sup   Up    Down  Norm  Inlet 
  Conduit               Length    Dry  Dry   Dry   Crit  Crit  Crit  Crit  Ltd   Ctrl  
  -------------------------------------------------------------------------------------
  H0014431                1.00   0.03  0.00  0.00  0.97  0.00  0.00  0.00  0.96  0.00
  H0014433                1.00   0.03  0.00  0.00  0.97  0.00  0.00  0.00  0.96  0.00
  H0014352                1.00   0.03  0.00  0.00  0.94  0.03  0.00  0.00  0.96  0.00
  H0014373                1.00   0.03  0.00  0.00  0.92  0.04  0.00  0.00  0.91  0.00
  H0017981                1.00   0.03  0.00  0.00  0.00  0.00  0.00  0.96  0.00  0.00
  H0017755                1.00   0.03  0.00  0.00  0.00  0.00  0.00  0.96  0.00  0.00
  H0017791                1.00   0.03  0.00  0.00  0.97  0.00  0.00  0.00  0.96  0.00
  H0017357                1.00   0.03  0.96  0.00  0.00  0.00  0.00  0.00  0.96  0.00
  H0018216                1.00   0.03  0.91  0.00  0.05  0.00  0.00  0.00  0.96  0.00
  H0016792                1.00   0.03  0.91  0.00  0.06  0.00  0.00  0.00  0.96  0.00
  H0019507                1.00   0.03  0.00  0.00  0.97  0.00  0.00  0.00  0.96  0.00
  H0019998                1.00   0.03  0.00  0.00  0.92  0.04  0.00  0.00  0.06  0.00
  H0019576                1.00   0.03  0.00  0.00  0.94  0.02  0.00  0.00  0.05  0.00
  H0020087                1.00   0.03  0.95  0.00  0.02  0.00  0.00  0.00  0.95  0.00
  H0020211                1.00   0.03  0.00  0.00  0.97  0.00  0.00  0.00  0.90  0.00
  H0018982                1.00   0.03  0.00  0.00  0.97  0.00  0.00  0.00  0.93  0.00
  H0018753                1.00   0.03  0.00  0.00  0.97  0.00  0.00  0.00  0.96  0.00
  H0018845                1.00   1.00  0.00  0.00  0.00  0.00  0.00  0.00  0.00  0.00
  H0018863                1.00   0.03  0.00  0.00  0.97  0.00  0.00  0.00  0.96  0.00
  H0019156                1.00   1.00  0.00  0.00  0.00  0.00  0.00  0.00  0.00  0.00
  H0018929                1.00   0.03  0.91  0.00  0.05  0.00  0.00  0.00  0.96  0.00
  H0018440                1.00   0.03  0.00  0.00  0.97  0.00  0.00  0.00  0.96  0.00
  H0018456                1.00   0.03  0.00  0.00  0.97  0.00  0.00  0.00  0.96  0.00
  H0018968                1.00   0.03  0.00  0.00  0.92  0.05  0.00  0.00  0.92  0.00
  H0022036                1.00   0.03  0.00  0.00  0.01  0.00  0.00  0.95  0.01  0.00
  H0021806                1.00   0.03  0.91  0.00  0.05  0.00  0.00  0.00  0.95  0.00
  H0022111                1.00   0.03  0.00  0.00  0.97  0.00  0.00  0.00  0.00  0.00
  H0021440                1.00   0.03  0.00  0.00  0.94  0.03  0.00  0.00  0.02  0.00
  H0021704                1.00   0.03  0.00  0.00  0.00  0.00  0.00  0.96  0.00  0.00
  H0020521                1.00   0.03  0.00  0.00  0.97  0.00  0.00  0.00  0.96  0.00
  H0020755                1.00   0.03  0.92  0.00  0.05  0.00  0.00  0.00  0.96  0.00
  H0020530                1.00   0.03  0.00  0.00  0.94  0.02  0.00  0.00  0.01  0.00
  H0020618                1.00   0.03  0.00  0.00  0.93  0.04  0.00  0.00  0.92  0.00
  H0021163                1.00   0.03  0.00  0.00  0.96  0.01  0.00  0.00  0.93  0.00
  H0020497                1.20   0.03  0.97  0.00  0.00  0.00  0.00  0.00  0.00  0.00
  H0024325                1.00   0.03  0.00  0.00  0.94  0.03  0.00  0.00  0.93  0.00
  H0023585                1.00   0.03  0.00  0.00  0.00  0.00  0.00  0.96  0.00  0.00
  H0024098                1.00   0.03  0.92  0.00  0.05  0.00  0.00  0.00  0.96  0.00
  H0024235                1.00   0.03  0.00  0.00  0.00  0.00  0.00  0.96  0.00  0.00
  H0024282                1.00   1.00  0.00  0.00  0.00  0.00  0.00  0.00  0.00  0.00
  H0024308                1.00   0.03  0.00  0.00  0.91  0.06  0.00  0.00  0.02  0.00
  H0024498                1.00   0.03  0.00  0.00  0.00  0.00  0.00  0.96  0.00  0.00
  H0026990                1.00   0.03  0.00  0.00  0.97  0.00  0.00  0.00  0.96  0.00
  H0041650                1.00   0.95  0.01  0.00  0.04  0.00  0.00  0.00  0.95  0.00
  H0041011                1.00   0.03  0.00  0.00  0.96  0.00  0.00  0.00  0.96  0.00
  H0045103                1.00   0.03  0.00  0.00  0.97  0.00  0.00  0.00  0.94  0.00
  H0045104                1.00   0.03  0.00  0.00  0.92  0.05  0.00  0.00  0.06  0.00
  H0045105                1.00   0.03  0.00  0.00  0.97  0.00  0.00  0.00  0.96  0.00
  H0045106                1.00   0.03  0.91  0.00  0.02  0.03  0.00  0.00  0.96  0.00
  H0045107                1.00   0.03  0.00  0.00  0.97  0.00  0.00  0.00  0.96  0.00
  H0045108                1.00   0.03  0.00  0.00  0.97  0.00  0.00  0.00  0.96  0.00
  
  
  *************************
  Conduit Surcharge Summary
  *************************
  
  ----------------------------------------------------------------------------
                                                           Hours        Hours 
                         --------- Hours Full --------   Above Full   Capacity
  Conduit                Both Ends  Upstream  Dnstream   Normal Flow   Limited
  ----------------------------------------------------------------------------
  H0014431                    0.36      0.36      0.36      0.39         0.36
  H0014433                    0.24      0.24      0.29      0.01         0.01
  H0014352                    0.10      0.10      0.16      0.01         0.01
  H0017981                    0.17      0.23      0.17      0.43         0.21
  H0017755                    0.16      0.20      0.16      0.27         0.18
  H0017357                    0.05      0.05      0.25      0.16         0.01
  H0018216                    0.23      0.27      0.23      0.33         0.25
  H0016792                    0.01      0.01      0.08      0.01         0.01
  H0019507                    0.25      0.25      0.36      0.01         0.01
  H0019998                    0.01      0.01      0.10      0.01         0.01
  H0020087                    0.03      0.03      0.04      0.01         0.01
  H0020211                    0.01      0.08      0.01      0.37         0.01
  H0018753                    0.25      0.25      0.36      0.01         0.01
  H0018863                    0.36      0.36      0.37      0.23         0.23
  H0018440                    0.31      0.40      0.31      0.44         0.37
  H0018456                    0.14      0.16      0.14      0.19         0.16
  H0021806                    0.20      0.25      0.20      0.29         0.23
  H0022111                    0.04      0.04      0.05      0.02         0.02
  H0021704                    0.01      0.01      0.01      0.18         0.01
  H0020521                    0.24      0.24      0.27      0.19         0.19
  H0020755                    0.15      0.15      0.16      0.08         0.07
  H0020530                    0.01      0.16      0.01      0.24         0.14
  H0021163                    0.29      0.29      0.32      0.30         0.28
  H0024325                    0.05      0.05      0.12      0.01         0.01
  H0023585                    0.11      0.15      0.11      0.18         0.15
  H0024098                    0.37      0.37      0.43      0.33         0.31
  H0024235                    0.01      0.10      0.01      0.14         0.08
  H0024498                    0.13      0.36      0.13      0.41         0.29
  H0026990                    0.10      0.10      0.15      0.01         0.01
  H0041011                    0.32      0.32      0.37      0.18         0.13
  H0045105                    0.10      0.10      0.12      0.01         0.01
  H0045106                    0.12      0.12      0.15      0.01         0.01
  H0045107                    0.31      0.31      0.36      0.15         0.14
  H0045108                    0.36      0.36      0.40      0.28         0.28
  

  Analysis begun on:  Fri Mar 22 15:54:40 2024
  Analysis ended on:  Fri Mar 22 15:54:49 2024
  Total elapsed time: 00:00:09