
  EPA STORM WATER MANAGEMENT MODEL - VERSION 5.2 (Build 5.2.4)
  PYSWMM TOOLKIT API - VERSION v1.0 (2023-11-27)
  ------------------------------------------------------------

  Gievenbeck_e2_T10D30 
  
  ****************
  Analysis Options
  ****************
  Flow Units ............... CMS
  Process Models:
    Rainfall/Runoff ........ YES
    RDII ................... NO
    Snowmelt ............... NO
    Groundwater ............ NO
    Flow Routing ........... YES
    Ponding Allowed ........ NO
    Water Quality .......... NO
  Infiltration Method ...... HORTON
  Flow Routing Method ...... DYNWAVE
  Surcharge Method ......... SLOT
  Starting Date ............ 01/01/2024 00:00:00
  Ending Date .............. 01/04/2024 04:00:00
  Antecedent Dry Days ...... 14.0
  Report Time Step ......... 00:01:00
  Wet Time Step ............ 00:01:00
  Dry Time Step ............ 00:01:00
  Routing Time Step ........ 1.00 sec
  Variable Time Step ....... YES
  Maximum Trials ........... 8
  Number of Threads ........ 1
  Head Tolerance ........... 0.001500 m
  
  
  **************************        Volume         Depth
  Runoff Quantity Continuity     hectare-m            mm
  **************************     ---------       -------
  Total Precipitation ......         0.236        23.300
  Evaporation Loss .........         0.010         0.964
  Infiltration Loss ........         0.118        11.628
  Surface Runoff ...........         0.109        10.764
  Final Storage ............         0.000         0.000
  Continuity Error (%) .....        -0.240
  
  
  **************************        Volume        Volume
  Flow Routing Continuity        hectare-m      10^6 ltr
  **************************     ---------     ---------
  Dry Weather Inflow .......         0.000         0.000
  Wet Weather Inflow .......         0.109         1.090
  Groundwater Inflow .......         0.000         0.000
  RDII Inflow ..............         0.000         0.000
  External Inflow ..........         0.000         0.000
  External Outflow .........         0.109         1.089
  Flooding Loss ............         0.000         0.003
  Evaporation Loss .........         0.000         0.000
  Exfiltration Loss ........         0.000         0.000
  Initial Stored Volume ....         0.000         0.000
  Final Stored Volume ......         0.000         0.000
  Continuity Error (%) .....        -0.220
  
  
  *************************
  Highest Continuity Errors
  *************************
  Node R0019373 (2.70%)
  Node R0019718 (-2.19%)
  
  
  ***************************
  Time-Step Critical Elements
  ***************************
  None
  
  
  ********************************
  Highest Flow Instability Indexes
  ********************************
  All links are stable.
  
  
  *********************************
  Most Frequent Nonconverging Nodes
  *********************************
  Convergence obtained at all time steps.
  
  
  *************************
  Routing Time Step Summary
  *************************
  Minimum Time Step           :     0.59 sec
  Average Time Step           :     1.00 sec
  Maximum Time Step           :     1.00 sec
  % of Time in Steady State   :     0.00
  Average Iterations per Step :     2.00
  % of Steps Not Converging   :     0.00
  Time Step Frequencies       :
      1.000 -  0.871 sec      :   100.00 %
      0.871 -  0.758 sec      :     0.00 %
      0.758 -  0.660 sec      :     0.00 %
      0.660 -  0.574 sec      :     0.00 %
      0.574 -  0.500 sec      :     0.00 %
  
  
  ***************************
  Subcatchment Runoff Summary
  ***************************
  
  ------------------------------------------------------------------------------------------------------------------------------
                            Total      Total      Total      Total     Imperv       Perv      Total       Total     Peak  Runoff
                           Precip      Runon       Evap      Infil     Runoff     Runoff     Runoff      Runoff   Runoff   Coeff
  Subcatchment                 mm         mm         mm         mm         mm         mm         mm    10^6 ltr      CMS
  ------------------------------------------------------------------------------------------------------------------------------
  EZG_368                   23.30       0.00       0.96      11.72      10.74       1.54      10.67        0.04     0.09   0.458
  EZG_392                   23.30       0.00       0.95      11.63      10.75       1.64      10.77        0.03     0.07   0.462
  EZG_352                   23.30       0.00       0.96      11.86      10.73       1.40      10.53        0.06     0.12   0.452
  EZG_372                   23.30       0.00       0.94      11.31      10.77       1.96      11.12        0.02     0.03   0.477
  EZG_416                   23.30       0.00       0.95      11.59      10.75       1.68      10.82        0.03     0.06   0.464
  EZG_388                   23.30       0.00       0.96      11.76      10.74       1.50      10.63        0.05     0.09   0.456
  EZG_394                   23.30       0.00       0.95      11.57      10.75       1.70      10.84        0.03     0.06   0.465
  EZG_400                   23.30       0.00       0.95      11.55      10.76       1.72      10.87        0.03     0.06   0.466
  EZG_390                   23.30       0.00       0.95      11.62      10.75       1.65      10.78        0.03     0.07   0.463
  EZG_350                   23.30       0.00       0.96      11.76      10.74       1.50      10.63        0.05     0.09   0.456
  EZG_370                   23.30       0.00       0.96      11.67      10.75       1.60      10.73        0.04     0.08   0.461
  EZG_398                   23.30       0.00       0.94      11.20      10.78       2.08      11.24        0.01     0.02   0.482
  EZG_382                   23.30       0.00       0.94      11.16      10.78       2.12      11.28        0.01     0.02   0.484
  EZG_374                   23.30       0.00       1.15       9.50      12.88       1.76      12.71        0.05     0.09   0.545
  EZG_412                   23.30       0.00       0.93      10.90      10.79       2.40      11.57        0.00     0.01   0.497
  EZG_344                   23.30       0.00       0.95      11.54      10.76       1.73      10.87        0.03     0.06   0.467
  EZG_376                   23.30       0.00       0.95      11.45      10.76       1.82      10.97        0.02     0.05   0.471
  EZG_356                   23.30       0.00       0.97      11.89      10.73       1.37      10.49        0.07     0.13   0.450
  EZG_386                   23.30       0.00       0.97      11.97      10.73       1.28      10.40        0.08     0.15   0.446
  EZG_380                   23.30       0.00       0.96      11.70      10.74       1.56      10.70        0.04     0.08   0.459
  EZG_378                   23.30       0.00       0.95      11.65      10.75       1.61      10.75        0.04     0.07   0.461
  EZG_414                   23.30       0.00       0.94      11.16      10.78       2.13      11.29        0.01     0.02   0.484
  EZG_402                   23.30       0.00       0.95      11.63      10.75       1.63      10.77        0.03     0.07   0.462
  EZG_358                   23.30       0.00       0.97      11.89      10.73       1.37      10.50        0.07     0.12   0.451
  EZG_364                   23.30       0.00       0.97      11.89      10.73       1.37      10.50        0.07     0.12   0.450
  EZG_410                   23.30       0.00       0.95      11.47      10.76       1.80      10.95        0.02     0.05   0.470
  EZG_366                   23.30       0.00       0.95      11.52      10.76       1.75      10.90        0.03     0.05   0.468
  EZG_18259                 23.30       0.00       0.95      11.52      10.76       1.75      10.90        0.03     0.05   0.468
  EZG_18258                 23.30       0.00       0.93      11.04      10.79       2.25      11.42        0.01     0.02   0.490
  EZG_346                   23.30       0.00       0.94      11.89      10.53       1.57      10.53        0.04     0.08   0.452
  EZG_348                   23.30       0.00       0.93      11.71      10.54       1.76      10.73        0.02     0.05   0.460
  
  
  ******************
  Node Depth Summary
  ******************
  
  ---------------------------------------------------------------------------------
                                 Average  Maximum  Maximum  Time of Max    Reported
                                   Depth    Depth      HGL   Occurrence   Max Depth
  Node                 Type       Meters   Meters   Meters  days hr:min      Meters
  ---------------------------------------------------------------------------------
  R0019466             JUNCTION     0.00     0.94    70.39     0  02:15        0.93
  R0019468             JUNCTION     0.00     0.83    70.14     0  02:15        0.83
  R0019831             JUNCTION     0.00     1.39    70.56     0  02:15        1.31
  R0019825             JUNCTION     0.00     1.50    70.34     0  02:15        1.46
  R0019843             JUNCTION     0.00     0.59    68.22     0  02:16        0.59
  R0019368             JUNCTION     0.00     0.84    67.63     0  02:16        0.82
  R0019369             JUNCTION     0.00     0.61    67.20     0  02:16        0.61
  R0019370             JUNCTION     0.00     0.51    66.41     0  02:16        0.51
  R0019345             JUNCTION     0.00     0.59    70.49     0  02:15        0.55
  R0019346             JUNCTION     0.00     0.46    70.26     0  02:15        0.43
  R0043600             JUNCTION     0.00     0.49    70.16     0  02:15        0.49
  R0019203             JUNCTION     0.00     0.49    70.03     0  02:15        0.49
  R0043594             JUNCTION     0.00     0.34    70.07     0  02:16        0.34
  R0021458             JUNCTION     0.00     0.42    70.07     0  02:15        0.42
  R0019202             JUNCTION     0.00     0.46    70.04     0  02:15        0.45
  R0019373             JUNCTION     0.00     0.71    70.38     0  02:15        0.70
  R0019254             JUNCTION     0.00     1.15    71.19     0  02:15        1.11
  R0019716             JUNCTION     0.00     0.54    69.55     0  02:15        0.53
  R0019946             JUNCTION     0.00     0.76    69.38     0  02:15        0.76
  R0013935             JUNCTION     0.00     0.92    69.75     0  02:15        0.87
  R0019939             JUNCTION     0.00     1.06    69.63     0  02:15        1.00
  R0019944             JUNCTION     0.00     0.47    68.75     0  02:16        0.47
  R0043703             JUNCTION     0.00     0.58    69.18     0  02:16        0.58
  R0019945             JUNCTION     0.00     0.60    69.00     0  02:16        0.59
  R0039621             JUNCTION     0.00     0.23    69.80     0  02:15        0.22
  R0019838             JUNCTION     0.00     0.33    69.79     0  02:15        0.33
  R0039606             JUNCTION     0.00     0.46    70.05     0  02:15        0.45
  R0019204             JUNCTION     0.00     0.00    69.91     0  00:00        0.00
  R0019205             JUNCTION     0.00     0.00    69.62     0  00:00        0.00
  R0019849             JUNCTION     0.00     0.99    69.51     0  02:15        0.96
  R0019371             JUNCTION     0.00     0.00    70.41     0  00:00        0.00
  R0019718             JUNCTION     0.00     0.58    70.00     0  02:15        0.57
  R0021442             JUNCTION     0.00     2.05    72.10     0  02:14        2.05
  R0019247             JUNCTION     0.00     0.96    70.84     0  02:14        0.96
  R0019719             JUNCTION     0.00     0.40    70.08     0  02:15        0.39
  R0019767             JUNCTION     0.00     0.54    65.27     0  02:16        0.54
  R0019768             JUNCTION     0.00     0.46    64.23     0  02:16        0.46
  R0021453             JUNCTION     0.00     0.13    70.08     0  02:15        0.13
  R0019839             JUNCTION     0.00     0.31    69.70     0  02:15        0.30
  R0019717             JUNCTION     0.00     0.52    69.86     0  02:15        0.51
  R0019252             JUNCTION     0.00     1.26    71.45     0  02:15        1.22
  R0019721             JUNCTION     0.00     0.44    70.31     0  02:15        0.39
  R0019942             JUNCTION     0.00     1.02    69.67     0  02:15        0.98
  R0019206             JUNCTION     0.00     0.00    69.07     0  00:00        0.00
  R0019840             JUNCTION     0.00     0.29    69.26     0  02:15        0.28
  R0043702             JUNCTION     0.00     0.45    69.15     0  02:15        0.43
  R0019723             JUNCTION     0.00     0.22    70.30     0  02:15        0.22
  R0019724             JUNCTION     0.00     0.14    70.30     0  02:16        0.13
  R0021433             JUNCTION     0.00     2.15    72.54     0  02:14        2.15
  R0021435             JUNCTION     0.00     2.11    72.29     0  02:14        2.11
  R0019769             OUTFALL      0.00     0.46    63.84     0  02:17        0.46
  
  
  *******************
  Node Inflow Summary
  *******************
  
  -------------------------------------------------------------------------------------------------
                                  Maximum  Maximum                  Lateral       Total        Flow
                                  Lateral    Total  Time of Max      Inflow      Inflow     Balance
                                   Inflow   Inflow   Occurrence      Volume      Volume       Error
  Node                 Type           CMS      CMS  days hr:min    10^6 ltr    10^6 ltr     Percent
  -------------------------------------------------------------------------------------------------
  R0019466             JUNCTION     0.086    0.095     0  02:12      0.0441      0.0681       0.212
  R0019468             JUNCTION     0.053    0.126     0  02:15      0.0261       0.093      -0.103
  R0019831             JUNCTION     0.069    0.069     0  02:15      0.0349      0.0349       0.171
  R0019825             JUNCTION     0.070    0.129     0  02:15       0.035      0.0698       0.342
  R0019843             JUNCTION     0.000    1.726     0  02:16           0        1.09      -0.013
  R0019368             JUNCTION     0.000    1.731     0  02:16           0        1.09       0.023
  R0019369             JUNCTION     0.000    1.739     0  02:16           0        1.09      -0.027
  R0019370             JUNCTION     0.000    1.735     0  02:16           0        1.09       0.005
  R0019345             JUNCTION     0.000    0.126     0  02:15           0      0.0683       0.089
  R0019346             JUNCTION     0.011    0.202     0  02:15     0.00462       0.116       0.012
  R0043600             JUNCTION     0.000    0.205     0  02:15           0       0.129      -0.048
  R0019203             JUNCTION     0.022    0.507     0  02:15     0.00997       0.308      -0.012
  R0043594             JUNCTION     0.117    0.172     0  02:15      0.0622      0.0897      -0.169
  R0021458             JUNCTION     0.094    0.240     0  02:15      0.0488       0.139      -0.013
  R0019202             JUNCTION     0.032    0.292     0  02:15       0.015       0.168      -0.621
  R0019373             JUNCTION     0.076    0.086     0  02:15      0.0385      0.0397       2.779
  R0019254             JUNCTION     0.063    0.130     0  02:15      0.0315      0.0684       0.081
  R0019716             JUNCTION     0.094    1.015     0  02:15      0.0485       0.623      -0.044
  R0019946             JUNCTION     0.000    1.023     0  02:15           0       0.623       0.033
  R0013935             JUNCTION     0.061    0.061     0  02:15      0.0301      0.0301       0.149
  R0019939             JUNCTION     0.024    0.078     0  02:15      0.0111      0.0411      -0.124
  R0019944             JUNCTION     0.057    1.285     0  02:16       0.028       0.796       0.014
  R0043703             JUNCTION     0.068    1.076     0  02:16      0.0341       0.657       0.010
  R0019945             JUNCTION     0.000    1.254     0  02:16           0       0.768      -0.012
  R0039621             JUNCTION     0.000    0.011     0  02:12           0     0.00148       1.213
  R0019838             JUNCTION     0.126    0.126     0  02:15      0.0672      0.0687      -0.029
  R0039606             JUNCTION     0.000    0.201     0  02:16           0       0.139       0.141
  R0019204             JUNCTION     0.000    0.000     0  00:00           0           0       0.000 ltr
  R0019205             JUNCTION     0.000    0.000     0  00:00           0           0       0.000 ltr
  R0019849             JUNCTION     0.000    0.190     0  02:15           0       0.111       0.052
  R0019371             JUNCTION     0.000    0.000     0  00:00           0           0       0.000 ltr
  R0019718             JUNCTION     0.082    0.571     0  02:15      0.0416        0.35      -2.141
  R0021442             JUNCTION     0.092    0.172     0  02:14      0.0482       0.108       0.107
  R0019247             JUNCTION     0.045    0.205     0  02:14      0.0219       0.129       0.041
  R0019719             JUNCTION     0.047    0.240     0  02:15       0.023       0.139       0.846
  R0019767             JUNCTION     0.000    1.738     0  02:16           0        1.09      -0.008
  R0019768             JUNCTION     0.000    1.747     0  02:16           0        1.09       0.023
  R0021453             JUNCTION     0.056    0.056     0  02:15      0.0275      0.0275      -0.077
  R0019839             JUNCTION     0.125    0.238     0  02:15      0.0664       0.134      -0.026
  R0019717             JUNCTION     0.152    0.932     0  02:15      0.0831       0.578       0.692
  R0019252             JUNCTION     0.073    0.073     0  02:15      0.0368      0.0368      -0.100
  R0019721             JUNCTION     0.022    0.086     0  02:15     0.00982      0.0428      -0.040
  R0019942             JUNCTION     0.000    0.121     0  02:15           0      0.0694      -0.446
  R0019206             JUNCTION     0.000    0.000     0  00:00           0           0       0.000 ltr
  R0019840             JUNCTION     0.000    0.357     0  02:15           0       0.227       0.023
  R0043702             JUNCTION     0.125    0.466     0  02:15      0.0665       0.293       0.006
  R0019723             JUNCTION     0.053    0.068     0  02:15      0.0259      0.0329      -0.147
  R0019724             JUNCTION     0.016    0.016     0  02:15     0.00699     0.00699      -0.140
  R0021433             JUNCTION     0.076    0.076     0  02:15      0.0383      0.0383      -0.145
  R0021435             JUNCTION     0.049    0.119     0  02:15      0.0239       0.062      -0.141
  R0019769             OUTFALL      0.000    1.750     0  02:17           0        1.09       0.000
  
  
  **********************
  Node Surcharge Summary
  **********************
  
  Surcharging occurs when water rises above the top of the highest conduit.
  ---------------------------------------------------------------------
                                               Max. Height   Min. Depth
                                   Hours       Above Crown    Below Rim
  Node                 Type      Surcharged         Meters       Meters
  ---------------------------------------------------------------------
  R0019466             JUNCTION        0.15          0.639        1.871
  R0019468             JUNCTION        0.14          0.531        1.899
  R0019831             JUNCTION        0.07          1.089        0.271
  R0019825             JUNCTION        0.12          1.200        0.000
  R0019345             JUNCTION        0.07          0.294        1.456
  R0019346             JUNCTION        0.02          0.062        1.678
  R0043600             JUNCTION        0.05          0.089        2.491
  R0019373             JUNCTION        0.07          0.408        2.092
  R0019254             JUNCTION        0.10          0.845        0.985
  R0013935             JUNCTION        0.08          0.625        0.695
  R0019939             JUNCTION        0.14          0.765        0.855
  R0019849             JUNCTION        0.16          0.689        1.241
  R0021442             JUNCTION        0.17          1.750        0.000
  R0019247             JUNCTION        0.08          0.560        1.300
  R0019252             JUNCTION        0.07          0.958        0.682
  R0019721             JUNCTION        0.01          0.044        1.516
  R0019942             JUNCTION        0.12          0.723        0.927
  R0021433             JUNCTION        0.11          1.850        0.000
  R0021435             JUNCTION        0.14          1.810        0.000
  
  
  *********************
  Node Flooding Summary
  *********************
  
  Flooding refers to all water that overflows a node, whether it ponds or not.
  --------------------------------------------------------------------------
                                                             Total   Maximum
                                 Maximum   Time of Max       Flood    Ponded
                        Hours       Rate    Occurrence      Volume     Depth
  Node                 Flooded       CMS   days hr:min    10^6 ltr    Meters
  --------------------------------------------------------------------------
  R0019825                0.01     0.007      0  02:15       0.000     0.000
  R0021442                0.01     0.007      0  02:14       0.000     0.000
  R0021433                0.01     0.012      0  02:14       0.000     0.000
  R0021435                0.02     0.046      0  02:15       0.003     0.000
  
  
  ***********************
  Outfall Loading Summary
  ***********************
  
  -----------------------------------------------------------
                         Flow       Avg       Max       Total
                         Freq      Flow      Flow      Volume
  Outfall Node           Pcnt       CMS       CMS    10^6 ltr
  -----------------------------------------------------------
  R0019769               4.10     0.097     1.750       1.089
  -----------------------------------------------------------
  System                 4.10     0.097     1.750       1.089
  
  
  ********************
  Link Flow Summary
  ********************
  
  -----------------------------------------------------------------------------
                                 Maximum  Time of Max   Maximum    Max/    Max/
                                  |Flow|   Occurrence   |Veloc|    Full    Full
  Link                 Type          CMS  days hr:min     m/sec    Flow   Depth
  -----------------------------------------------------------------------------
  H0014431             CONDUIT     0.079     0  02:12      1.12    1.46    1.00
  H0014433             CONDUIT     0.064     0  02:15      0.91    0.82    1.00
  H0014352             CONDUIT     1.731     0  02:16      3.20    0.71    0.80
  H0014373             CONDUIT     1.735     0  02:16      4.17    0.80    0.62
  H0017981             CONDUIT     0.125     0  02:15      1.77    3.54    1.00
  H0017755             CONDUIT     0.206     0  02:15      1.64    1.67    1.00
  H0017791             CONDUIT     0.145     0  02:15      0.67    0.21    0.42
  H0017357             CONDUIT     0.085     0  02:15      1.21    1.37    1.00
  H0018216             CONDUIT     0.126     0  02:15      1.78    2.29    1.00
  H0016792             CONDUIT     1.023     0  02:15      2.08    0.59    0.72
  H0019507             CONDUIT     0.055     0  02:15      0.77    0.76    1.00
  H0019998             CONDUIT     1.292     0  02:16      3.42    0.52    0.59
  H0019576             CONDUIT     1.083     0  02:16      2.46    0.73    0.65
  H0020087             CONDUIT     0.011     0  02:12      0.26    0.05    0.56
  H0020211             CONDUIT     1.033     0  02:16      2.06    2.57    0.75
  H0018982             CONDUIT     0.201     0  02:16      0.88    0.32    0.49
  H0018753             CONDUIT     0.040     0  02:12      0.65    0.57    1.00
  H0018845             CONDUIT     0.000     0  00:00      0.00    0.00    0.00
  H0018863             CONDUIT     0.073     0  02:15      1.04    1.72    1.00
  H0019156             CONDUIT     0.000     0  00:00      0.00    0.00    0.00
  H0018929             CONDUIT     0.507     0  02:15      1.33    0.44    0.59
  H0018440             CONDUIT     0.162     0  02:14      2.29    2.90    1.00
  H0018456             CONDUIT     0.203     0  02:15      1.61    1.23    1.00
  H0018968             CONDUIT     1.747     0  02:16      4.83    0.67    0.56
  H0022036             CONDUIT     0.055     0  02:15      0.59    0.04    0.24
  H0021806             CONDUIT     0.205     0  02:15      1.63    1.82    1.00
  H0022111             CONDUIT     0.115     0  02:15      0.88    0.82    0.64
  H0021440             CONDUIT     0.942     0  02:15      2.47    0.61    0.59
  H0021704             CONDUIT     0.579     0  02:16      1.55    1.10    0.59
  H0020521             CONDUIT     0.068     0  02:15      0.96    1.37    1.00
  H0020755             CONDUIT     0.078     0  02:16      0.70    0.86    1.00
  H0020530             CONDUIT     1.739     0  02:16      3.19    1.49    0.81
  H0020618             CONDUIT     1.252     0  02:16      3.21    0.78    0.59
  H0021163             CONDUIT     0.121     0  02:15      1.71    2.02    1.00
  H0020497             CONDUIT     0.000     0  00:00      0.00    0.00    0.99
  H0024325             CONDUIT     0.233     0  02:15      1.90    0.70    0.60
  H0023585             CONDUIT     0.461     0  02:15      2.57    1.06    0.90
  H0024098             CONDUIT     0.188     0  02:15      2.66    2.19    1.00
  H0024235             CONDUIT     0.238     0  02:15      1.48    0.98    0.77
  H0024282             CONDUIT     0.000     0  00:00      0.00    0.00    0.00
  H0024308             CONDUIT     1.750     0  02:17      5.40    0.51    0.51
  H0024498             CONDUIT     0.125     0  02:15      1.77    1.94    1.00
  H0026990             CONDUIT     0.065     0  02:15      0.81    0.49    0.81
  H0041650             CONDUIT     0.296     0  02:15      0.88    0.35    0.53
  H0041011             CONDUIT     0.117     0  02:15      1.65    1.16    1.00
  H0045103             CONDUIT     0.219     0  02:16      0.81    0.27    0.51
  H0045104             CONDUIT     1.738     0  02:16      4.49    0.62    0.59
  H0045105             CONDUIT     0.015     0  02:15      0.40    0.26    0.58
  H0045106             CONDUIT     0.356     0  02:15      2.38    0.48    0.74
  H0045107             CONDUIT     0.071     0  02:15      1.01    1.17    1.00
  H0045108             CONDUIT     0.091     0  02:16      1.29    1.64    1.00
  
  
  ***************************
  Flow Classification Summary
  ***************************
  
  -------------------------------------------------------------------------------------
                      Adjusted    ---------- Fraction of Time in Flow Class ---------- 
                       /Actual         Up    Down  Sub   Sup   Up    Down  Norm  Inlet 
  Conduit               Length    Dry  Dry   Dry   Crit  Crit  Crit  Crit  Ltd   Ctrl  
  -------------------------------------------------------------------------------------
  H0014431                1.00   0.03  0.00  0.00  0.97  0.00  0.00  0.00  0.97  0.00
  H0014433                1.00   0.03  0.00  0.00  0.97  0.00  0.00  0.00  0.97  0.00
  H0014352                1.00   0.03  0.00  0.00  0.95  0.02  0.00  0.00  0.97  0.00
  H0014373                1.00   0.03  0.00  0.00  0.94  0.03  0.00  0.00  0.92  0.00
  H0017981                1.00   0.03  0.00  0.00  0.00  0.00  0.00  0.97  0.00  0.00
  H0017755                1.00   0.03  0.00  0.00  0.00  0.00  0.00  0.97  0.00  0.00
  H0017791                1.00   0.03  0.00  0.00  0.97  0.00  0.00  0.00  0.97  0.00
  H0017357                1.00   0.03  0.97  0.00  0.00  0.00  0.00  0.00  0.97  0.00
  H0018216                1.00   0.03  0.93  0.00  0.04  0.00  0.00  0.00  0.97  0.00
  H0016792                1.00   0.03  0.92  0.00  0.05  0.00  0.00  0.00  0.97  0.00
  H0019507                1.00   0.03  0.00  0.00  0.97  0.00  0.00  0.00  0.97  0.00
  H0019998                1.00   0.03  0.00  0.00  0.94  0.03  0.00  0.00  0.05  0.00
  H0019576                1.00   0.03  0.00  0.00  0.96  0.01  0.00  0.00  0.05  0.00
  H0020087                1.00   0.03  0.96  0.00  0.01  0.00  0.00  0.00  0.97  0.00
  H0020211                1.00   0.03  0.00  0.00  0.97  0.00  0.00  0.00  0.92  0.00
  H0018982                1.00   0.03  0.00  0.00  0.97  0.00  0.00  0.00  0.94  0.00
  H0018753                1.00   0.03  0.00  0.00  0.97  0.00  0.00  0.00  0.97  0.00
  H0018845                1.00   1.00  0.00  0.00  0.00  0.00  0.00  0.00  0.00  0.00
  H0018863                1.00   0.03  0.00  0.00  0.97  0.00  0.00  0.00  0.97  0.00
  H0019156                1.00   1.00  0.00  0.00  0.00  0.00  0.00  0.00  0.00  0.00
  H0018929                1.00   0.03  0.93  0.00  0.04  0.00  0.00  0.00  0.97  0.00
  H0018440                1.00   0.03  0.00  0.00  0.97  0.00  0.00  0.00  0.97  0.00
  H0018456                1.00   0.03  0.00  0.00  0.97  0.00  0.00  0.00  0.97  0.00
  H0018968                1.00   0.03  0.00  0.00  0.93  0.04  0.00  0.00  0.94  0.00
  H0022036                1.00   0.03  0.00  0.00  0.01  0.00  0.00  0.96  0.01  0.00
  H0021806                1.00   0.03  0.93  0.00  0.04  0.00  0.00  0.00  0.97  0.00
  H0022111                1.00   0.03  0.00  0.00  0.97  0.00  0.00  0.00  0.00  0.00
  H0021440                1.00   0.03  0.00  0.00  0.95  0.02  0.00  0.00  0.02  0.00
  H0021704                1.00   0.03  0.00  0.00  0.00  0.00  0.00  0.97  0.00  0.00
  H0020521                1.00   0.03  0.00  0.00  0.97  0.00  0.00  0.00  0.97  0.00
  H0020755                1.00   0.03  0.94  0.00  0.04  0.00  0.00  0.00  0.97  0.00
  H0020530                1.00   0.03  0.00  0.00  0.96  0.02  0.00  0.00  0.01  0.00
  H0020618                1.00   0.03  0.00  0.00  0.95  0.03  0.00  0.00  0.93  0.00
  H0021163                1.00   0.03  0.00  0.00  0.97  0.00  0.00  0.00  0.94  0.00
  H0020497                1.20   0.03  0.97  0.00  0.00  0.00  0.00  0.00  0.00  0.00
  H0024325                1.00   0.03  0.00  0.00  0.95  0.02  0.00  0.00  0.94  0.00
  H0023585                1.00   0.03  0.00  0.00  0.00  0.00  0.00  0.97  0.00  0.00
  H0024098                1.00   0.03  0.93  0.00  0.04  0.00  0.00  0.00  0.97  0.00
  H0024235                1.00   0.03  0.00  0.00  0.00  0.00  0.00  0.97  0.00  0.00
  H0024282                1.00   1.00  0.00  0.00  0.00  0.00  0.00  0.00  0.00  0.00
  H0024308                1.00   0.03  0.00  0.00  0.92  0.05  0.00  0.00  0.01  0.00
  H0024498                1.00   0.03  0.00  0.00  0.00  0.00  0.00  0.97  0.00  0.00
  H0026990                1.00   0.03  0.00  0.00  0.97  0.00  0.00  0.00  0.97  0.00
  H0041650                1.00   0.96  0.01  0.00  0.03  0.00  0.00  0.00  0.97  0.00
  H0041011                1.00   0.03  0.00  0.00  0.97  0.00  0.00  0.00  0.97  0.00
  H0045103                1.00   0.03  0.00  0.00  0.97  0.00  0.00  0.00  0.95  0.00
  H0045104                1.00   0.03  0.00  0.00  0.93  0.04  0.00  0.00  0.05  0.00
  H0045105                1.00   0.03  0.00  0.00  0.97  0.00  0.00  0.00  0.97  0.00
  H0045106                1.00   0.03  0.93  0.00  0.02  0.02  0.00  0.00  0.97  0.00
  H0045107                1.00   0.03  0.00  0.00  0.97  0.00  0.00  0.00  0.97  0.00
  H0045108                1.00   0.03  0.00  0.00  0.97  0.00  0.00  0.00  0.97  0.00
  
  
  *************************
  Conduit Surcharge Summary
  *************************
  
  ----------------------------------------------------------------------------
                                                           Hours        Hours 
                         --------- Hours Full --------   Above Full   Capacity
  Conduit                Both Ends  Upstream  Dnstream   Normal Flow   Limited
  ----------------------------------------------------------------------------
  H0014431                    0.14      0.15      0.14      0.16         0.14
  H0014433                    0.07      0.07      0.12      0.01         0.01
  H0017981                    0.03      0.07      0.03      0.17         0.06
  H0017755                    0.02      0.05      0.02      0.10         0.04
  H0017357                    0.01      0.01      0.07      0.03         0.01
  H0018216                    0.07      0.10      0.07      0.12         0.09
  H0019507                    0.08      0.08      0.14      0.01         0.01
  H0020211                    0.01      0.01      0.01      0.14         0.01
  H0018753                    0.07      0.07      0.15      0.01         0.01
  H0018863                    0.14      0.14      0.16      0.08         0.07
  H0018440                    0.12      0.17      0.12      0.19         0.15
  H0018456                    0.01      0.02      0.01      0.05         0.02
  H0021806                    0.05      0.08      0.05      0.11         0.07
  H0021704                    0.01      0.01      0.01      0.03         0.01
  H0020521                    0.07      0.07      0.10      0.06         0.06
  H0020755                    0.01      0.01      0.02      0.01         0.01
  H0020530                    0.01      0.01      0.01      0.07         0.01
  H0021163                    0.11      0.12      0.12      0.12         0.10
  H0023585                    0.01      0.01      0.01      0.02         0.01
  H0024098                    0.15      0.16      0.18      0.13         0.11
  H0024498                    0.01      0.14      0.01      0.17         0.10
  H0026990                    0.01      0.01      0.01      0.01         0.01
  H0041011                    0.12      0.12      0.16      0.04         0.03
  H0045107                    0.11      0.11      0.14      0.02         0.02
  H0045108                    0.14      0.14      0.17      0.10         0.10
  

  Analysis begun on:  Fri Mar 22 15:55:13 2024
  Analysis ended on:  Fri Mar 22 15:55:24 2024
  Total elapsed time: 00:00:11