
  EPA STORM WATER MANAGEMENT MODEL - VERSION 5.2 (Build 5.2.4)
  PYSWMM TOOLKIT API - VERSION v1.0 (2023-11-27)
  ------------------------------------------------------------

  Gievenbeck_e2_T30D120 
  
  ****************
  Analysis Options
  ****************
  Flow Units ............... CMS
  Process Models:
    Rainfall/Runoff ........ YES
    RDII ................... NO
    Snowmelt ............... NO
    Groundwater ............ NO
    Flow Routing ........... YES
    Ponding Allowed ........ NO
    Water Quality .......... NO
  Infiltration Method ...... HORTON
  Flow Routing Method ...... DYNWAVE
  Surcharge Method ......... SLOT
  Starting Date ............ 01/01/2024 00:00:00
  Ending Date .............. 01/04/2024 04:00:00
  Antecedent Dry Days ...... 14.0
  Report Time Step ......... 00:01:00
  Wet Time Step ............ 00:01:00
  Dry Time Step ............ 00:01:00
  Routing Time Step ........ 1.00 sec
  Variable Time Step ....... YES
  Maximum Trials ........... 8
  Number of Threads ........ 1
  Head Tolerance ........... 0.001500 m
  
  
  **************************        Volume         Depth
  Runoff Quantity Continuity     hectare-m            mm
  **************************     ---------       -------
  Total Precipitation ......         0.431        42.610
  Evaporation Loss .........         0.010         0.955
  Infiltration Loss ........         0.187        18.498
  Surface Runoff ...........         0.235        23.225
  Final Storage ............         0.000         0.000
  Continuity Error (%) .....        -0.161
  
  
  **************************        Volume        Volume
  Flow Routing Continuity        hectare-m      10^6 ltr
  **************************     ---------     ---------
  Dry Weather Inflow .......         0.000         0.000
  Wet Weather Inflow .......         0.235         2.351
  Groundwater Inflow .......         0.000         0.000
  RDII Inflow ..............         0.000         0.000
  External Inflow ..........         0.000         0.000
  External Outflow .........         0.229         2.290
  Flooding Loss ............         0.006         0.062
  Evaporation Loss .........         0.000         0.000
  Exfiltration Loss ........         0.000         0.000
  Initial Stored Volume ....         0.000         0.000
  Final Stored Volume ......         0.000         0.000
  Continuity Error (%) .....        -0.023
  
  
  *************************
  Highest Continuity Errors
  *************************
  Node R0019206 (10.94%)
  Node R0019373 (1.15%)
  
  
  ***************************
  Time-Step Critical Elements
  ***************************
  None
  
  
  ********************************
  Highest Flow Instability Indexes
  ********************************
  All links are stable.
  
  
  *********************************
  Most Frequent Nonconverging Nodes
  *********************************
  Convergence obtained at all time steps.
  
  
  *************************
  Routing Time Step Summary
  *************************
  Minimum Time Step           :     0.50 sec
  Average Time Step           :     1.00 sec
  Maximum Time Step           :     1.00 sec
  % of Time in Steady State   :     0.00
  Average Iterations per Step :     2.00
  % of Steps Not Converging   :     0.00
  Time Step Frequencies       :
      1.000 -  0.871 sec      :    99.99 %
      0.871 -  0.758 sec      :     0.00 %
      0.758 -  0.660 sec      :     0.00 %
      0.660 -  0.574 sec      :     0.00 %
      0.574 -  0.500 sec      :     0.00 %
  
  
  ***************************
  Subcatchment Runoff Summary
  ***************************
  
  ------------------------------------------------------------------------------------------------------------------------------
                            Total      Total      Total      Total     Imperv       Perv      Total       Total     Peak  Runoff
                           Precip      Runon       Evap      Infil     Runoff     Runoff     Runoff      Runoff   Runoff   Coeff
  Subcatchment                 mm         mm         mm         mm         mm         mm         mm    10^6 ltr      CMS
  ------------------------------------------------------------------------------------------------------------------------------
  EZG_368                   42.61       0.00       0.95      18.64      20.40       5.75      23.09        0.10     0.14   0.542
  EZG_392                   42.61       0.00       0.95      18.51      20.40       5.88      23.22        0.08     0.11   0.545
  EZG_352                   42.61       0.00       0.95      18.82      20.39       5.56      22.89        0.14     0.19   0.537
  EZG_372                   42.61       0.00       0.94      18.12      20.43       6.29      23.65        0.03     0.05   0.555
  EZG_416                   42.61       0.00       0.94      18.46      20.41       5.93      23.28        0.07     0.10   0.546
  EZG_388                   42.61       0.00       0.95      18.69      20.40       5.70      23.04        0.11     0.15   0.541
  EZG_394                   42.61       0.00       0.94      18.44      20.41       5.95      23.30        0.06     0.10   0.547
  EZG_400                   42.61       0.00       0.94      18.40      20.41       5.99      23.34        0.06     0.09   0.548
  EZG_390                   42.61       0.00       0.95      18.50      20.41       5.89      23.23        0.07     0.11   0.545
  EZG_350                   42.61       0.00       0.95      18.69      20.40       5.70      23.03        0.11     0.15   0.541
  EZG_370                   42.61       0.00       0.95      18.56      20.40       5.83      23.17        0.08     0.12   0.544
  EZG_398                   42.61       0.00       0.93      17.99      20.43       6.42      23.79        0.02     0.04   0.558
  EZG_382                   42.61       0.00       0.93      17.95      20.44       6.47      23.84        0.02     0.04   0.559
  EZG_374                   42.61       0.00       1.14      15.09      24.47       5.65      26.45        0.10     0.15   0.621
  EZG_412                   42.61       0.00       0.92      17.68      20.45       6.76      24.14        0.01     0.02   0.567
  EZG_344                   42.61       0.00       0.94      18.40      20.41       6.00      23.35        0.06     0.09   0.548
  EZG_376                   42.61       0.00       0.94      18.29      20.42       6.11      23.47        0.05     0.07   0.551
  EZG_356                   42.61       0.00       0.96      18.86      20.39       5.52      22.85        0.15     0.20   0.536
  EZG_386                   42.61       0.00       0.96      18.99      20.38       5.39      22.72        0.18     0.24   0.533
  EZG_380                   42.61       0.00       0.95      18.61      20.40       5.78      23.12        0.09     0.13   0.543
  EZG_378                   42.61       0.00       0.95      18.54      20.40       5.85      23.19        0.08     0.12   0.544
  EZG_414                   42.61       0.00       0.93      17.94      20.44       6.47      23.84        0.02     0.04   0.560
  EZG_402                   42.61       0.00       0.95      18.52      20.40       5.88      23.22        0.08     0.11   0.545
  EZG_358                   42.61       0.00       0.96      18.86      20.39       5.52      22.85        0.14     0.20   0.536
  EZG_364                   42.61       0.00       0.96      18.86      20.39       5.52      22.85        0.14     0.20   0.536
  EZG_410                   42.61       0.00       0.94      18.31      20.42       6.09      23.44        0.05     0.08   0.550
  EZG_366                   42.61       0.00       0.94      18.37      20.41       6.03      23.38        0.06     0.09   0.549
  EZG_18259                 42.61       0.00       0.94      18.37      20.41       6.03      23.38        0.06     0.09   0.549
  EZG_18258                 42.61       0.00       0.93      17.82      20.44       6.61      23.98        0.01     0.03   0.563
  EZG_346                   42.61       0.00       0.93      18.92      19.99       5.83      22.83        0.08     0.12   0.536
  EZG_348                   42.61       0.00       0.92      18.68      20.01       6.08      23.09        0.05     0.08   0.542
  
  
  ******************
  Node Depth Summary
  ******************
  
  ---------------------------------------------------------------------------------
                                 Average  Maximum  Maximum  Time of Max    Reported
                                   Depth    Depth      HGL   Occurrence   Max Depth
  Node                 Type       Meters   Meters   Meters  days hr:min      Meters
  ---------------------------------------------------------------------------------
  R0019466             JUNCTION     0.00     2.13    71.58     0  02:45        1.97
  R0019468             JUNCTION     0.01     2.15    71.46     0  02:45        1.97
  R0019831             JUNCTION     0.00     1.66    70.83     0  02:44        1.66
  R0019825             JUNCTION     0.00     1.50    70.34     0  02:42        1.50
  R0019843             JUNCTION     0.01     1.56    69.19     0  02:44        1.33
  R0019368             JUNCTION     0.01     1.69    68.48     0  02:44        1.52
  R0019369             JUNCTION     0.01     0.82    67.41     0  02:46        0.81
  R0019370             JUNCTION     0.01     0.62    66.52     0  02:46        0.62
  R0019345             JUNCTION     0.00     1.28    71.18     0  02:45        1.26
  R0019346             JUNCTION     0.00     1.07    70.87     0  02:45        1.06
  R0043600             JUNCTION     0.00     0.69    70.36     0  02:46        0.68
  R0019203             JUNCTION     0.00     0.70    70.24     0  02:46        0.69
  R0043594             JUNCTION     0.00     0.54    70.27     0  02:45        0.53
  R0021458             JUNCTION     0.00     0.62    70.27     0  02:45        0.62
  R0019202             JUNCTION     0.00     0.66    70.24     0  02:46        0.66
  R0019373             JUNCTION     0.00     1.72    71.39     0  02:45        1.61
  R0019254             JUNCTION     0.00     2.00    72.04     0  02:45        2.00
  R0019716             JUNCTION     0.01     1.04    70.05     0  02:45        0.95
  R0019946             JUNCTION     0.01     1.21    69.83     0  02:45        1.19
  R0013935             JUNCTION     0.00     1.62    70.45     0  02:44        1.62
  R0019939             JUNCTION     0.00     1.62    70.19     0  02:45        1.61
  R0019944             JUNCTION     0.00     1.04    69.32     0  02:45        0.95
  R0043703             JUNCTION     0.01     1.04    69.64     0  02:45        0.95
  R0019945             JUNCTION     0.01     1.01    69.41     0  02:45        0.97
  R0039621             JUNCTION     0.00     1.56    71.13     0  02:45        1.36
  R0019838             JUNCTION     0.00     1.78    71.24     0  02:45        1.56
  R0039606             JUNCTION     0.00     0.65    70.24     0  02:46        0.65
  R0019204             JUNCTION     0.00     0.00    69.91     0  00:00        0.00
  R0019205             JUNCTION     0.00     0.00    69.62     0  00:00        0.00
  R0019849             JUNCTION     0.00     1.41    69.93     0  02:45        1.38
  R0019371             JUNCTION     0.00     0.00    70.41     0  00:00        0.00
  R0019718             JUNCTION     0.01     0.82    70.24     0  02:46        0.80
  R0021442             JUNCTION     0.01     2.05    72.10     0  02:42        2.05
  R0019247             JUNCTION     0.00     1.20    71.08     0  02:45        1.20
  R0019719             JUNCTION     0.00     0.81    70.49     0  02:45        0.80
  R0019767             JUNCTION     0.01     0.66    65.39     0  02:46        0.66
  R0019768             JUNCTION     0.00     0.54    64.31     0  02:46        0.54
  R0021453             JUNCTION     0.00     0.31    70.26     0  02:46        0.31
  R0019839             JUNCTION     0.00     1.74    71.13     0  02:45        1.54
  R0019717             JUNCTION     0.01     0.84    70.18     0  02:46        0.82
  R0019252             JUNCTION     0.00     1.94    72.13     0  02:43        1.94
  R0019721             JUNCTION     0.00     1.16    71.03     0  02:45        1.15
  R0019942             JUNCTION     0.00     1.36    70.01     0  02:45        1.35
  R0019206             JUNCTION     0.00     0.03    69.10     0  02:44        0.03
  R0019840             JUNCTION     0.00     1.70    70.67     0  02:45        1.65
  R0043702             JUNCTION     0.00     1.86    70.56     0  02:45        1.82
  R0019723             JUNCTION     0.00     1.08    71.16     0  02:45        1.06
  R0019724             JUNCTION     0.00     1.02    71.18     0  02:45        1.00
  R0021433             JUNCTION     0.01     2.15    72.54     0  02:42        2.15
  R0021435             JUNCTION     0.01     2.11    72.29     0  02:42        2.11
  R0019769             OUTFALL      0.00     0.54    63.92     0  02:46        0.54
  
  
  *******************
  Node Inflow Summary
  *******************
  
  -------------------------------------------------------------------------------------------------
                                  Maximum  Maximum                  Lateral       Total        Flow
                                  Lateral    Total  Time of Max      Inflow      Inflow     Balance
                                   Inflow   Inflow   Occurrence      Volume      Volume       Error
  Node                 Type           CMS      CMS  days hr:min    10^6 ltr    10^6 ltr     Percent
  -------------------------------------------------------------------------------------------------
  R0019466             JUNCTION     0.138    0.138     0  02:45      0.0954       0.144       0.050
  R0019468             JUNCTION     0.086    0.162     0  02:44       0.056       0.188      -0.022
  R0019831             JUNCTION     0.112    0.112     0  02:45      0.0752      0.0752       0.106
  R0019825             JUNCTION     0.112    0.213     0  02:45      0.0754        0.15       0.126
  R0019843             JUNCTION     0.000    2.382     0  02:44           0        2.29      -0.024
  R0019368             JUNCTION     0.000    2.344     0  02:45           0        2.29      -0.030
  R0019369             JUNCTION     0.000    2.348     0  02:45           0        2.29      -0.021
  R0019370             JUNCTION     0.000    2.316     0  02:46           0        2.29       0.002
  R0019345             JUNCTION     0.000    0.160     0  02:43           0        0.14       0.030
  R0019346             JUNCTION     0.018    0.298     0  02:45     0.00963       0.241       0.008
  R0043600             JUNCTION     0.000    0.217     0  02:44           0       0.248      -0.103
  R0019203             JUNCTION     0.036    0.727     0  02:45      0.0211       0.648      -0.009
  R0043594             JUNCTION     0.187    0.262     0  02:45       0.135       0.194      -0.018
  R0021458             JUNCTION     0.151    0.345     0  02:45       0.106         0.3      -0.000
  R0019202             JUNCTION     0.052    0.503     0  02:45       0.032       0.378      -0.326
  R0019373             JUNCTION     0.122    0.177     0  02:45      0.0831      0.0951       1.167
  R0019254             JUNCTION     0.102    0.166     0  02:43      0.0678        0.14       0.031
  R0019716             JUNCTION     0.150    1.513     0  02:45       0.105        1.32      -0.015
  R0019946             JUNCTION     0.000    1.447     0  02:45           0        1.32       0.002
  R0013935             JUNCTION     0.098    0.098     0  02:45      0.0646      0.0646       0.065
  R0019939             JUNCTION     0.040    0.122     0  02:44      0.0235      0.0873      -0.078
  R0019944             JUNCTION     0.092    1.750     0  02:45      0.0601        1.67       0.023
  R0043703             JUNCTION     0.110    1.546     0  02:45      0.0735        1.39      -0.008
  R0019945             JUNCTION     0.000    1.691     0  02:45           0        1.61      -0.001
  R0039621             JUNCTION     0.000    0.088     0  02:44           0     0.00483      -3.854
  R0019838             JUNCTION     0.201    0.203     0  02:44       0.146       0.151      -0.042
  R0039606             JUNCTION     0.000    0.319     0  02:46           0         0.3       0.036
  R0019204             JUNCTION     0.000    0.000     0  00:00           0           0       0.000 ltr
  R0019205             JUNCTION     0.000    0.000     0  00:00           0           0       0.000 ltr
  R0019849             JUNCTION     0.000    0.214     0  02:44           0       0.218       0.001
  R0019371             JUNCTION     0.000    0.000     0  00:00           0           0       0.000 ltr
  R0019718             JUNCTION     0.131    0.819     0  02:45        0.09       0.738      -0.551
  R0021442             JUNCTION     0.146    0.218     0  02:45         0.1       0.212       0.028
  R0019247             JUNCTION     0.073    0.218     0  02:45      0.0468       0.248       0.116
  R0019719             JUNCTION     0.077    0.371     0  02:45      0.0492        0.29       0.560
  R0019767             JUNCTION     0.000    2.318     0  02:46           0        2.29      -0.004
  R0019768             JUNCTION     0.000    2.315     0  02:46           0        2.29       0.007
  R0021453             JUNCTION     0.090    0.090     0  02:45      0.0591      0.0591      -0.042
  R0019839             JUNCTION     0.199    0.368     0  02:45       0.145        0.29       0.051
  R0019717             JUNCTION     0.242    1.395     0  02:45       0.181        1.21       0.140
  R0019252             JUNCTION     0.117    0.117     0  02:45      0.0795      0.0795      -0.018
  R0019721             JUNCTION     0.036    0.139     0  02:45      0.0207      0.0912       0.114
  R0019942             JUNCTION     0.000    0.123     0  02:42           0        0.13      -0.245
  R0019206             JUNCTION     0.000    0.023     0  02:44           0       9e-05      12.289
  R0019840             JUNCTION     0.000    0.484     0  02:44           0       0.478      -0.018
  R0043702             JUNCTION     0.199    0.664     0  02:45       0.145       0.623       0.363
  R0019723             JUNCTION     0.086    0.108     0  02:45      0.0555      0.0704      -0.193
  R0019724             JUNCTION     0.026    0.032     0  02:43      0.0147      0.0148      -0.391
  R0021433             JUNCTION     0.122    0.122     0  02:45      0.0831      0.0831      -0.100
  R0021435             JUNCTION     0.080    0.151     0  02:45      0.0513       0.128      -0.087
  R0019769             OUTFALL      0.000    2.317     0  02:46           0        2.29       0.000
  
  
  **********************
  Node Surcharge Summary
  **********************
  
  Surcharging occurs when water rises above the top of the highest conduit.
  ---------------------------------------------------------------------
                                               Max. Height   Min. Depth
                                   Hours       Above Crown    Below Rim
  Node                 Type      Surcharged         Meters       Meters
  ---------------------------------------------------------------------
  R0019466             JUNCTION        0.20          1.832        0.678
  R0019468             JUNCTION        0.20          1.853        0.577
  R0019831             JUNCTION        0.13          1.360        0.000
  R0019825             JUNCTION        0.17          1.200        0.000
  R0019843             JUNCTION        0.07          0.656        1.964
  R0019368             JUNCTION        0.10          0.789        0.261
  R0019345             JUNCTION        0.13          0.982        0.768
  R0019346             JUNCTION        0.09          0.672        1.068
  R0043600             JUNCTION        0.12          0.291        2.289
  R0019373             JUNCTION        0.14          1.418        1.082
  R0019254             JUNCTION        0.15          1.699        0.131
  R0019716             JUNCTION        0.03          0.145        1.575
  R0019946             JUNCTION        0.07          0.314        1.206
  R0013935             JUNCTION        0.14          1.320        0.000
  R0019939             JUNCTION        0.20          1.323        0.297
  R0019944             JUNCTION        0.02          0.141        1.389
  R0043703             JUNCTION        0.01          0.138        1.182
  R0019945             JUNCTION        0.02          0.112        1.348
  R0039621             JUNCTION        0.04          1.060        0.000
  R0019838             JUNCTION        0.05          1.284        0.016
  R0019849             JUNCTION        0.22          1.114        0.816
  R0021442             JUNCTION        0.22          1.750        0.000
  R0019247             JUNCTION        0.14          0.804        1.056
  R0019719             JUNCTION        0.06          0.312        1.488
  R0019839             JUNCTION        0.05          1.239        0.411
  R0019252             JUNCTION        0.13          1.640        0.000
  R0019721             JUNCTION        0.09          0.760        0.800
  R0019942             JUNCTION        0.18          1.062        0.588
  R0019840             JUNCTION        0.08          1.198        1.372
  R0043702             JUNCTION        0.10          1.360        1.550
  R0019723             JUNCTION        0.06          0.683        0.637
  R0019724             JUNCTION        0.06          0.719        0.731
  R0021433             JUNCTION        0.17          1.850        0.000
  R0021435             JUNCTION        0.20          1.810        0.000
  
  
  *********************
  Node Flooding Summary
  *********************
  
  Flooding refers to all water that overflows a node, whether it ponds or not.
  --------------------------------------------------------------------------
                                                             Total   Maximum
                                 Maximum   Time of Max       Flood    Ponded
                        Hours       Rate    Occurrence      Volume     Depth
  Node                 Flooded       CMS   days hr:min    10^6 ltr    Meters
  --------------------------------------------------------------------------
  R0019831                0.02     0.011      0  02:45       0.000     0.000
  R0019825                0.07     0.120      0  02:45       0.020     0.000
  R0013935                0.02     0.019      0  02:45       0.001     0.000
  R0039621                0.01     0.064      0  02:45       0.001     0.000
  R0021442                0.07     0.073      0  02:45       0.010     0.000
  R0019252                0.05     0.072      0  02:45       0.007     0.000
  R0021433                0.06     0.050      0  02:45       0.007     0.000
  R0021435                0.08     0.079      0  02:45       0.016     0.000
  
  
  ***********************
  Outfall Loading Summary
  ***********************
  
  -----------------------------------------------------------
                         Flow       Avg       Max       Total
                         Freq      Flow      Flow      Volume
  Outfall Node           Pcnt       CMS       CMS    10^6 ltr
  -----------------------------------------------------------
  R0019769               5.84     0.144     2.317       2.290
  -----------------------------------------------------------
  System                 5.84     0.144     2.317       2.290
  
  
  ********************
  Link Flow Summary
  ********************
  
  -----------------------------------------------------------------------------
                                 Maximum  Time of Max   Maximum    Max/    Max/
                                  |Flow|   Occurrence   |Veloc|    Full    Full
  Link                 Type          CMS  days hr:min     m/sec    Flow   Depth
  -----------------------------------------------------------------------------
  H0014431             CONDUIT     0.083     0  02:43      1.17    1.53    1.00
  H0014433             CONDUIT     0.100     0  02:45      1.42    1.28    1.00
  H0014352             CONDUIT     2.344     0  02:45      3.68    0.96    1.00
  H0014373             CONDUIT     2.316     0  02:46      4.31    1.07    0.80
  H0017981             CONDUIT     0.157     0  02:43      2.22    4.44    1.00
  H0017755             CONDUIT     0.215     0  02:45      1.71    1.74    1.00
  H0017791             CONDUIT     0.224     0  02:45      0.71    0.32    0.64
  H0017357             CONDUIT     0.174     0  02:45      2.46    2.78    1.00
  H0018216             CONDUIT     0.160     0  02:43      2.26    2.91    1.00
  H0016792             CONDUIT     1.447     0  02:45      2.27    0.83    1.00
  H0019507             CONDUIT     0.085     0  02:44      1.20    1.17    1.00
  H0019998             CONDUIT     1.791     0  02:44      3.43    0.72    1.00
  H0019576             CONDUIT     1.494     0  02:46      2.60    1.00    1.00
  H0020087             CONDUIT     0.088     0  02:44      0.45    0.39    1.00
  H0020211             CONDUIT     1.456     0  02:45      2.29    3.63    1.00
  H0018982             CONDUIT     0.319     0  02:46      0.87    0.51    0.70
  H0018753             CONDUIT     0.069     0  02:45      0.97    0.97    1.00
  H0018845             CONDUIT     0.000     0  00:00      0.00    0.00    0.00
  H0018863             CONDUIT     0.119     0  02:44      1.68    2.79    1.00
  H0019156             CONDUIT     0.000     0  00:00      0.00    0.00    0.00
  H0018929             CONDUIT     0.724     0  02:45      1.40    0.63    0.84
  H0018440             CONDUIT     0.160     0  02:42      2.27    2.87    1.00
  H0018456             CONDUIT     0.299     0  02:45      2.38    1.82    1.00
  H0018968             CONDUIT     2.315     0  02:46      5.11    0.89    0.67
  H0022036             CONDUIT     0.087     0  02:45      0.54    0.07    0.45
  H0021806             CONDUIT     0.217     0  02:44      1.72    1.92    1.00
  H0022111             CONDUIT     0.183     0  02:45      0.93    1.31    1.00
  H0021440             CONDUIT     1.370     0  02:45      2.51    0.88    1.00
  H0021704             CONDUIT     0.807     0  02:45      1.66    1.54    0.89
  H0020521             CONDUIT     0.082     0  02:43      1.15    1.65    1.00
  H0020755             CONDUIT     0.139     0  02:45      1.10    1.53    1.00
  H0020530             CONDUIT     2.348     0  02:45      3.69    2.01    1.00
  H0020618             CONDUIT     1.692     0  02:46      3.35    1.05    1.00
  H0021163             CONDUIT     0.123     0  02:42      1.74    2.06    1.00
  H0020497             CONDUIT     0.023     0  02:44      0.33    0.05    1.00
  H0024325             CONDUIT     0.340     0  02:45      1.87    1.01    1.00
  H0023585             CONDUIT     0.664     0  02:45      3.38    1.53    1.00
  H0024098             CONDUIT     0.211     0  02:44      2.99    2.46    1.00
  H0024235             CONDUIT     0.370     0  02:45      1.89    1.52    1.00
  H0024282             CONDUIT     0.000     0  00:00      0.00    0.00    0.05
  H0024308             CONDUIT     2.317     0  02:46      5.76    0.68    0.60
  H0024498             CONDUIT     0.155     0  02:44      2.19    2.40    1.00
  H0026990             CONDUIT     0.106     0  02:45      0.84    0.80    1.00
  H0041650             CONDUIT     0.504     0  02:45      1.02    0.59    0.76
  H0041011             CONDUIT     0.117     0  02:42      1.65    1.16    1.00
  H0045103             CONDUIT     0.333     0  02:47      0.95    0.42    0.73
  H0045104             CONDUIT     2.318     0  02:46      4.78    0.82    0.71
  H0045105             CONDUIT     0.027     0  02:45      0.44    0.47    1.00
  H0045106             CONDUIT     0.477     0  02:45      2.43    0.64    1.00
  H0045107             CONDUIT     0.072     0  02:46      1.01    1.18    1.00
  H0045108             CONDUIT     0.089     0  02:47      1.26    1.61    1.00
  
  
  ***************************
  Flow Classification Summary
  ***************************
  
  -------------------------------------------------------------------------------------
                      Adjusted    ---------- Fraction of Time in Flow Class ---------- 
                       /Actual         Up    Down  Sub   Sup   Up    Down  Norm  Inlet 
  Conduit               Length    Dry  Dry   Dry   Crit  Crit  Crit  Crit  Ltd   Ctrl  
  -------------------------------------------------------------------------------------
  H0014431                1.00   0.03  0.00  0.00  0.97  0.00  0.00  0.00  0.96  0.00
  H0014433                1.00   0.03  0.00  0.00  0.97  0.00  0.00  0.00  0.97  0.00
  H0014352                1.00   0.03  0.00  0.00  0.94  0.03  0.00  0.00  0.97  0.00
  H0014373                1.00   0.03  0.00  0.00  0.92  0.05  0.00  0.00  0.90  0.00
  H0017981                1.00   0.03  0.00  0.00  0.00  0.00  0.00  0.97  0.00  0.00
  H0017755                1.00   0.03  0.00  0.00  0.00  0.00  0.00  0.97  0.00  0.00
  H0017791                1.00   0.03  0.00  0.00  0.97  0.00  0.00  0.00  0.97  0.00
  H0017357                1.00   0.03  0.97  0.00  0.00  0.00  0.00  0.00  0.96  0.00
  H0018216                1.00   0.03  0.91  0.00  0.06  0.00  0.00  0.00  0.97  0.00
  H0016792                1.00   0.03  0.90  0.00  0.06  0.00  0.00  0.00  0.97  0.00
  H0019507                1.00   0.03  0.00  0.00  0.97  0.00  0.00  0.00  0.97  0.00
  H0019998                1.00   0.03  0.00  0.00  0.92  0.05  0.00  0.00  0.06  0.00
  H0019576                1.00   0.03  0.00  0.00  0.94  0.03  0.00  0.00  0.06  0.00
  H0020087                1.00   0.03  0.95  0.00  0.02  0.00  0.00  0.00  0.96  0.00
  H0020211                1.00   0.03  0.00  0.00  0.97  0.00  0.00  0.00  0.90  0.00
  H0018982                1.00   0.03  0.00  0.00  0.97  0.00  0.00  0.00  0.93  0.00
  H0018753                1.00   0.03  0.00  0.00  0.97  0.00  0.00  0.00  0.97  0.00
  H0018845                1.00   1.00  0.00  0.00  0.00  0.00  0.00  0.00  0.00  0.00
  H0018863                1.00   0.03  0.00  0.00  0.97  0.00  0.00  0.00  0.96  0.00
  H0019156                1.00   1.00  0.00  0.00  0.00  0.00  0.00  0.00  0.00  0.00
  H0018929                1.00   0.03  0.91  0.00  0.06  0.00  0.00  0.00  0.97  0.00
  H0018440                1.00   0.03  0.00  0.00  0.97  0.00  0.00  0.00  0.96  0.00
  H0018456                1.00   0.03  0.00  0.00  0.97  0.00  0.00  0.00  0.96  0.00
  H0018968                1.00   0.03  0.00  0.00  0.91  0.06  0.00  0.00  0.92  0.00
  H0022036                1.00   0.03  0.00  0.00  0.02  0.00  0.00  0.94  0.02  0.00
  H0021806                1.00   0.03  0.91  0.00  0.06  0.00  0.00  0.00  0.95  0.00
  H0022111                1.00   0.03  0.00  0.00  0.97  0.00  0.00  0.00  0.00  0.00
  H0021440                1.00   0.03  0.00  0.00  0.94  0.03  0.00  0.00  0.02  0.00
  H0021704                1.00   0.03  0.00  0.00  0.00  0.00  0.00  0.97  0.00  0.00
  H0020521                1.00   0.03  0.00  0.00  0.97  0.00  0.00  0.00  0.97  0.00
  H0020755                1.00   0.03  0.92  0.00  0.05  0.00  0.00  0.00  0.97  0.00
  H0020530                1.00   0.03  0.00  0.00  0.94  0.03  0.00  0.00  0.01  0.00
  H0020618                1.00   0.03  0.00  0.00  0.93  0.04  0.00  0.00  0.93  0.00
  H0021163                1.00   0.03  0.00  0.00  0.96  0.01  0.00  0.00  0.92  0.00
  H0020497                1.20   0.03  0.97  0.00  0.00  0.00  0.00  0.00  0.96  0.00
  H0024325                1.00   0.03  0.00  0.00  0.94  0.04  0.00  0.00  0.92  0.00
  H0023585                1.00   0.03  0.00  0.00  0.00  0.00  0.00  0.97  0.00  0.00
  H0024098                1.00   0.03  0.91  0.00  0.06  0.00  0.00  0.00  0.96  0.00
  H0024235                1.00   0.03  0.00  0.00  0.00  0.00  0.00  0.97  0.00  0.00
  H0024282                1.00   1.00  0.00  0.00  0.00  0.00  0.00  0.00  0.00  0.00
  H0024308                1.00   0.03  0.00  0.00  0.90  0.07  0.00  0.00  0.01  0.00
  H0024498                1.00   0.03  0.00  0.00  0.00  0.00  0.00  0.97  0.00  0.00
  H0026990                1.00   0.03  0.00  0.00  0.97  0.00  0.00  0.00  0.97  0.00
  H0041650                1.00   0.94  0.01  0.00  0.05  0.00  0.00  0.00  0.96  0.00
  H0041011                1.00   0.03  0.00  0.00  0.97  0.00  0.00  0.00  0.96  0.00
  H0045103                1.00   0.03  0.00  0.00  0.97  0.00  0.00  0.00  0.93  0.00
  H0045104                1.00   0.03  0.00  0.00  0.91  0.06  0.00  0.00  0.06  0.00
  H0045105                1.00   0.03  0.00  0.00  0.97  0.00  0.00  0.00  0.97  0.00
  H0045106                1.00   0.03  0.00  0.00  0.93  0.04  0.00  0.00  0.97  0.00
  H0045107                1.00   0.03  0.00  0.00  0.97  0.00  0.00  0.00  0.97  0.00
  H0045108                1.00   0.03  0.00  0.00  0.97  0.00  0.00  0.00  0.97  0.00
  
  
  *************************
  Conduit Surcharge Summary
  *************************
  
  ----------------------------------------------------------------------------
                                                           Hours        Hours 
                         --------- Hours Full --------   Above Full   Capacity
  Conduit                Both Ends  Upstream  Dnstream   Normal Flow   Limited
  ----------------------------------------------------------------------------
  H0014431                    0.20      0.20      0.20      0.20         0.17
  H0014433                    0.13      0.13      0.17      0.05         0.05
  H0014352                    0.07      0.07      0.10      0.01         0.01
  H0014373                    0.01      0.01      0.01      0.05         0.01
  H0017981                    0.10      0.13      0.10      0.26         0.12
  H0017755                    0.10      0.12      0.10      0.15         0.11
  H0017357                    0.06      0.06      0.14      0.09         0.01
  H0018216                    0.13      0.15      0.13      0.17         0.14
  H0016792                    0.02      0.02      0.07      0.01         0.01
  H0019507                    0.14      0.14      0.20      0.04         0.04
  H0019998                    0.02      0.02      0.07      0.01         0.01
  H0019576                    0.01      0.01      0.02      0.01         0.01
  H0020087                    0.04      0.04      0.05      0.01         0.01
  H0020211                    0.01      0.07      0.01      0.21         0.03
  H0018753                    0.14      0.14      0.20      0.01         0.01
  H0018863                    0.20      0.20      0.22      0.13         0.12
  H0018440                    0.17      0.22      0.17      0.28         0.20
  H0018456                    0.09      0.09      0.09      0.12         0.09
  H0021806                    0.12      0.14      0.12      0.16         0.13
  H0022111                    0.05      0.05      0.05      0.05         0.03
  H0021440                    0.01      0.01      0.02      0.01         0.01
  H0021704                    0.01      0.01      0.01      0.11         0.01
  H0020521                    0.13      0.13      0.15      0.10         0.09
  H0020755                    0.09      0.09      0.09      0.04         0.04
  H0020530                    0.01      0.10      0.01      0.14         0.09
  H0020618                    0.02      0.02      0.02      0.04         0.01
  H0021163                    0.17      0.17      0.18      0.17         0.15
  H0020497                    0.01      0.01     73.25      0.01         0.01
  H0024325                    0.05      0.05      0.08      0.01         0.01
  H0023585                    0.07      0.10      0.07      0.11         0.09
  H0024098                    0.22      0.22      0.26      0.17         0.17
  H0024235                    0.05      0.06      0.05      0.08         0.06
  H0024498                    0.08      0.20      0.08      0.23         0.16
  H0026990                    0.06      0.06      0.09      0.01         0.01
  H0041011                    0.18      0.18      0.22      0.05         0.04
  H0045105                    0.06      0.06      0.07      0.01         0.01
  H0045106                    0.08      0.08      0.10      0.01         0.01
  H0045107                    0.17      0.17      0.20      0.07         0.07
  H0045108                    0.20      0.20      0.22      0.15         0.15
  

  Analysis begun on:  Fri Mar 22 15:56:09 2024
  Analysis ended on:  Fri Mar 22 15:56:19 2024
  Total elapsed time: 00:00:10