
  EPA STORM WATER MANAGEMENT MODEL - VERSION 5.2 (Build 5.2.4)
  PYSWMM TOOLKIT API - VERSION v1.0 (2023-11-27)
  ------------------------------------------------------------

  Gievenbeck_e2_T5D15 
  
  ****************
  Analysis Options
  ****************
  Flow Units ............... CMS
  Process Models:
    Rainfall/Runoff ........ YES
    RDII ................... NO
    Snowmelt ............... NO
    Groundwater ............ NO
    Flow Routing ........... YES
    Ponding Allowed ........ NO
    Water Quality .......... NO
  Infiltration Method ...... HORTON
  Flow Routing Method ...... DYNWAVE
  Surcharge Method ......... SLOT
  Starting Date ............ 01/01/2024 00:00:00
  Ending Date .............. 01/04/2024 04:00:00
  Antecedent Dry Days ...... 14.0
  Report Time Step ......... 00:01:00
  Wet Time Step ............ 00:01:00
  Dry Time Step ............ 00:01:00
  Routing Time Step ........ 1.00 sec
  Variable Time Step ....... YES
  Maximum Trials ........... 8
  Number of Threads ........ 1
  Head Tolerance ........... 0.001500 m
  
  
  **************************        Volume         Depth
  Runoff Quantity Continuity     hectare-m            mm
  **************************     ---------       -------
  Total Precipitation ......         0.163        16.100
  Evaporation Loss .........         0.010         0.962
  Infiltration Loss ........         0.088         8.679
  Surface Runoff ...........         0.066         6.510
  Final Storage ............         0.000         0.000
  Continuity Error (%) .....        -0.323
  
  
  **************************        Volume        Volume
  Flow Routing Continuity        hectare-m      10^6 ltr
  **************************     ---------     ---------
  Dry Weather Inflow .......         0.000         0.000
  Wet Weather Inflow .......         0.066         0.659
  Groundwater Inflow .......         0.000         0.000
  RDII Inflow ..............         0.000         0.000
  External Inflow ..........         0.000         0.000
  External Outflow .........         0.066         0.662
  Flooding Loss ............         0.000         0.000
  Evaporation Loss .........         0.000         0.000
  Exfiltration Loss ........         0.000         0.000
  Initial Stored Volume ....         0.000         0.000
  Final Stored Volume ......         0.000         0.000
  Continuity Error (%) .....        -0.463
  
  
  *************************
  Highest Continuity Errors
  *************************
  Node R0019718 (-3.39%)
  Node R0019717 (1.17%)
  
  
  ***************************
  Time-Step Critical Elements
  ***************************
  None
  
  
  ********************************
  Highest Flow Instability Indexes
  ********************************
  All links are stable.
  
  
  *********************************
  Most Frequent Nonconverging Nodes
  *********************************
  Convergence obtained at all time steps.
  
  
  *************************
  Routing Time Step Summary
  *************************
  Minimum Time Step           :     0.41 sec
  Average Time Step           :     1.00 sec
  Maximum Time Step           :     1.00 sec
  % of Time in Steady State   :     0.00
  Average Iterations per Step :     2.00
  % of Steps Not Converging   :     0.00
  Time Step Frequencies       :
      1.000 -  0.871 sec      :   100.00 %
      0.871 -  0.758 sec      :     0.00 %
      0.758 -  0.660 sec      :     0.00 %
      0.660 -  0.574 sec      :     0.00 %
      0.574 -  0.500 sec      :     0.00 %
  
  
  ***************************
  Subcatchment Runoff Summary
  ***************************
  
  ------------------------------------------------------------------------------------------------------------------------------
                            Total      Total      Total      Total     Imperv       Perv      Total       Total     Peak  Runoff
                           Precip      Runon       Evap      Infil     Runoff     Runoff     Runoff      Runoff   Runoff   Coeff
  Subcatchment                 mm         mm         mm         mm         mm         mm         mm    10^6 ltr      CMS
  ------------------------------------------------------------------------------------------------------------------------------
  EZG_368                   16.10       0.00       0.96       8.74       7.14       0.38       6.45        0.03     0.06   0.401
  EZG_392                   16.10       0.00       0.95       8.70       7.15       0.42       6.50        0.02     0.05   0.404
  EZG_352                   16.10       0.00       0.96       8.80       7.13       0.32       6.38        0.04     0.08   0.396
  EZG_372                   16.10       0.00       0.94       8.54       7.17       0.59       6.69        0.01     0.02   0.416
  EZG_416                   16.10       0.00       0.95       8.68       7.15       0.44       6.52        0.02     0.04   0.405
  EZG_388                   16.10       0.00       0.96       8.76       7.14       0.36       6.43        0.03     0.06   0.399
  EZG_394                   16.10       0.00       0.95       8.68       7.15       0.45       6.53        0.02     0.04   0.406
  EZG_400                   16.10       0.00       0.95       8.66       7.16       0.46       6.55        0.02     0.04   0.407
  EZG_390                   16.10       0.00       0.95       8.70       7.15       0.43       6.50        0.02     0.05   0.404
  EZG_350                   16.10       0.00       0.96       8.76       7.14       0.36       6.43        0.03     0.06   0.399
  EZG_370                   16.10       0.00       0.95       8.72       7.15       0.40       6.48        0.02     0.05   0.402
  EZG_398                   16.10       0.00       0.94       8.47       7.18       0.66       6.77        0.01     0.02   0.420
  EZG_382                   16.10       0.00       0.94       8.45       7.19       0.68       6.79        0.01     0.02   0.422
  EZG_374                   16.10       0.00       1.15       7.23       8.56       0.50       7.77        0.03     0.06   0.483
  EZG_412                   16.10       0.00       0.93       8.28       7.21       0.86       6.99        0.00     0.01   0.434
  EZG_344                   16.10       0.00       0.95       8.66       7.16       0.47       6.55        0.02     0.04   0.407
  EZG_376                   16.10       0.00       0.95       8.61       7.16       0.51       6.60        0.01     0.03   0.410
  EZG_356                   16.10       0.00       0.96       8.81       7.13       0.31       6.37        0.04     0.08   0.396
  EZG_386                   16.10       0.00       0.97       8.84       7.12       0.28       6.33        0.05     0.10   0.393
  EZG_380                   16.10       0.00       0.96       8.73       7.14       0.39       6.46        0.03     0.06   0.401
  EZG_378                   16.10       0.00       0.95       8.71       7.15       0.41       6.49        0.02     0.05   0.403
  EZG_414                   16.10       0.00       0.94       8.45       7.19       0.69       6.80        0.01     0.02   0.422
  EZG_402                   16.10       0.00       0.95       8.70       7.15       0.42       6.50        0.02     0.05   0.404
  EZG_358                   16.10       0.00       0.96       8.81       7.13       0.31       6.37        0.04     0.08   0.396
  EZG_364                   16.10       0.00       0.96       8.81       7.13       0.31       6.37        0.04     0.08   0.396
  EZG_410                   16.10       0.00       0.95       8.62       7.16       0.50       6.59        0.01     0.03   0.409
  EZG_366                   16.10       0.00       0.95       8.65       7.16       0.48       6.56        0.02     0.04   0.408
  EZG_18259                 16.10       0.00       0.95       8.65       7.16       0.48       6.56        0.02     0.04   0.408
  EZG_18258                 16.10       0.00       0.93       8.37       7.20       0.77       6.88        0.00     0.01   0.428
  EZG_346                   16.10       0.00       0.93       8.87       7.00       0.39       6.35        0.02     0.05   0.394
  EZG_348                   16.10       0.00       0.93       8.78       7.02       0.48       6.45        0.01     0.03   0.400
  
  
  ******************
  Node Depth Summary
  ******************
  
  ---------------------------------------------------------------------------------
                                 Average  Maximum  Maximum  Time of Max    Reported
                                   Depth    Depth      HGL   Occurrence   Max Depth
  Node                 Type       Meters   Meters   Meters  days hr:min      Meters
  ---------------------------------------------------------------------------------
  R0019466             JUNCTION     0.00     0.56    70.01     0  02:10        0.52
  R0019468             JUNCTION     0.00     0.51    69.82     0  02:09        0.47
  R0019831             JUNCTION     0.00     0.17    69.34     0  02:10        0.17
  R0019825             JUNCTION     0.00     0.47    69.31     0  02:10        0.42
  R0019843             JUNCTION     0.00     0.41    68.04     0  02:12        0.40
  R0019368             JUNCTION     0.00     0.62    67.41     0  02:12        0.61
  R0019369             JUNCTION     0.00     0.44    67.03     0  02:12        0.44
  R0019370             JUNCTION     0.00     0.38    66.28     0  02:13        0.38
  R0019345             JUNCTION     0.00     0.32    70.22     0  02:10        0.31
  R0019346             JUNCTION     0.00     0.28    70.08     0  02:10        0.28
  R0043600             JUNCTION     0.00     0.31    69.98     0  02:11        0.31
  R0019203             JUNCTION     0.00     0.36    69.90     0  02:11        0.35
  R0043594             JUNCTION     0.00     0.25    69.98     0  02:10        0.24
  R0021458             JUNCTION     0.00     0.29    69.94     0  02:11        0.29
  R0019202             JUNCTION     0.00     0.33    69.91     0  02:11        0.32
  R0019373             JUNCTION     0.00     0.35    70.02     0  02:10        0.33
  R0019254             JUNCTION     0.00     0.48    70.52     0  02:10        0.41
  R0019716             JUNCTION     0.00     0.39    69.40     0  02:12        0.39
  R0019946             JUNCTION     0.00     0.55    69.17     0  02:12        0.55
  R0013935             JUNCTION     0.00     0.18    69.01     0  02:11        0.17
  R0019939             JUNCTION     0.00     0.42    68.99     0  02:10        0.41
  R0019944             JUNCTION     0.00     0.34    68.62     0  02:12        0.34
  R0043703             JUNCTION     0.00     0.43    69.03     0  02:12        0.42
  R0019945             JUNCTION     0.00     0.43    68.83     0  02:12        0.43
  R0039621             JUNCTION     0.00     0.15    69.72     0  02:10        0.15
  R0019838             JUNCTION     0.00     0.25    69.71     0  02:10        0.25
  R0039606             JUNCTION     0.00     0.32    69.91     0  02:11        0.31
  R0019204             JUNCTION     0.00     0.00    69.91     0  00:00        0.00
  R0019205             JUNCTION     0.00     0.00    69.62     0  00:00        0.00
  R0019849             JUNCTION     0.00     0.44    68.96     0  02:11        0.43
  R0019371             JUNCTION     0.00     0.00    70.41     0  00:00        0.00
  R0019718             JUNCTION     0.00     0.44    69.86     0  02:11        0.44
  R0021442             JUNCTION     0.00     1.01    71.06     0  02:10        0.98
  R0019247             JUNCTION     0.00     0.42    70.30     0  02:10        0.42
  R0019719             JUNCTION     0.00     0.29    69.97     0  02:11        0.29
  R0019767             JUNCTION     0.00     0.40    65.13     0  02:13        0.40
  R0019768             JUNCTION     0.00     0.34    64.11     0  02:13        0.34
  R0021453             JUNCTION     0.00     0.11    70.06     0  02:10        0.10
  R0019839             JUNCTION     0.00     0.23    69.62     0  02:10        0.23
  R0019717             JUNCTION     0.00     0.39    69.73     0  02:11        0.38
  R0019252             JUNCTION     0.00     0.45    70.64     0  02:10        0.34
  R0019721             JUNCTION     0.00     0.24    70.11     0  02:10        0.24
  R0019942             JUNCTION     0.00     0.38    69.03     0  02:10        0.35
  R0019206             JUNCTION     0.00     0.00    69.07     0  00:00        0.00
  R0019840             JUNCTION     0.00     0.21    69.18     0  02:10        0.21
  R0043702             JUNCTION     0.00     0.31    69.01     0  02:10        0.31
  R0019723             JUNCTION     0.00     0.16    70.24     0  02:10        0.16
  R0019724             JUNCTION     0.00     0.09    70.25     0  02:10        0.09
  R0021433             JUNCTION     0.00     0.97    71.36     0  02:10        0.92
  R0021435             JUNCTION     0.00     1.08    71.26     0  02:10        1.04
  R0019769             OUTFALL      0.00     0.34    63.72     0  02:13        0.33
  
  
  *******************
  Node Inflow Summary
  *******************
  
  -------------------------------------------------------------------------------------------------
                                  Maximum  Maximum                  Lateral       Total        Flow
                                  Lateral    Total  Time of Max      Inflow      Inflow     Balance
                                   Inflow   Inflow   Occurrence      Volume      Volume       Error
  Node                 Type           CMS      CMS  days hr:min    10^6 ltr    10^6 ltr     Percent
  -------------------------------------------------------------------------------------------------
  R0019466             JUNCTION     0.059    0.090     0  02:09      0.0266      0.0468       0.286
  R0019468             JUNCTION     0.037    0.110     0  02:09      0.0157      0.0624      -0.128
  R0019831             JUNCTION     0.048    0.048     0  02:10       0.021       0.021       0.100
  R0019825             JUNCTION     0.048    0.094     0  02:10      0.0211      0.0421       0.581
  R0019843             JUNCTION     0.000    1.021     0  02:12           0       0.662      -0.030
  R0019368             JUNCTION     0.000    1.020     0  02:12           0       0.662       0.011
  R0019369             JUNCTION     0.000    1.066     0  02:12           0       0.662      -0.016
  R0019370             JUNCTION     0.000    1.035     0  02:13           0       0.662       0.010
  R0019345             JUNCTION     0.000    0.081     0  02:10           0      0.0412       0.026
  R0019346             JUNCTION     0.007    0.136     0  02:10     0.00279      0.0698       0.068
  R0043600             JUNCTION     0.000    0.142     0  02:10           0      0.0802       0.126
  R0019203             JUNCTION     0.015    0.313     0  02:11     0.00601       0.182      -0.005
  R0043594             JUNCTION     0.079    0.116     0  02:10      0.0377      0.0542      -0.430
  R0021458             JUNCTION     0.064    0.159     0  02:10      0.0295       0.084      -0.033
  R0019202             JUNCTION     0.022    0.170     0  02:11     0.00905      0.0962      -0.117
  R0019373             JUNCTION     0.052    0.053     0  02:10      0.0232      0.0232       0.101
  R0019254             JUNCTION     0.044    0.083     0  02:10       0.019      0.0413       0.102
  R0019716             JUNCTION     0.064    0.622     0  02:11      0.0293       0.374      -0.069
  R0019946             JUNCTION     0.000    0.623     0  02:12           0       0.374       0.066
  R0013935             JUNCTION     0.042    0.042     0  02:10      0.0181      0.0181       0.082
  R0019939             JUNCTION     0.017    0.057     0  02:10      0.0067      0.0248      -0.121
  R0019944             JUNCTION     0.039    0.767     0  02:12      0.0169       0.478       0.011
  R0043703             JUNCTION     0.047    0.657     0  02:12      0.0206       0.394       0.002
  R0019945             JUNCTION     0.000    0.749     0  02:12           0       0.461      -0.009
  R0039621             JUNCTION     0.000    0.009     0  02:08           0    0.000894       2.117
  R0019838             JUNCTION     0.084    0.084     0  02:10      0.0408      0.0417      -0.051
  R0039606             JUNCTION     0.000    0.147     0  02:10           0      0.0843       0.249
  R0019204             JUNCTION     0.000    0.000     0  00:00           0           0       0.000 ltr
  R0019205             JUNCTION     0.000    0.000     0  00:00           0           0       0.000 ltr
  R0019849             JUNCTION     0.000    0.123     0  02:10           0       0.067       0.098
  R0019371             JUNCTION     0.000    0.000     0  00:00           0           0       0.000 ltr
  R0019718             JUNCTION     0.056    0.350     0  02:11      0.0252       0.207      -3.278
  R0021442             JUNCTION     0.062    0.129     0  02:10      0.0295       0.067       0.160
  R0019247             JUNCTION     0.032    0.148     0  02:10      0.0132      0.0801      -0.188
  R0019719             JUNCTION     0.033    0.157     0  02:10      0.0138      0.0836      -0.050
  R0019767             JUNCTION     0.000    1.030     0  02:13           0       0.662      -0.011
  R0019768             JUNCTION     0.000    1.029     0  02:13           0       0.662       0.038
  R0021453             JUNCTION     0.039    0.039     0  02:10      0.0166      0.0166       0.176
  R0019839             JUNCTION     0.083    0.149     0  02:10      0.0403      0.0811      -0.070
  R0019717             JUNCTION     0.100    0.579     0  02:11      0.0505       0.349       1.189
  R0019252             JUNCTION     0.050    0.050     0  02:10      0.0222      0.0222      -0.253
  R0019721             JUNCTION     0.015    0.059     0  02:10     0.00591      0.0258       0.091
  R0019942             JUNCTION     0.000    0.082     0  02:10           0      0.0419      -0.609
  R0019206             JUNCTION     0.000    0.000     0  00:00           0           0       0.000 ltr
  R0019840             JUNCTION     0.000    0.242     0  02:10           0       0.144       0.053
  R0043702             JUNCTION     0.083    0.311     0  02:10      0.0404       0.184      -0.025
  R0019723             JUNCTION     0.037    0.047     0  02:10      0.0156      0.0198      -0.276
  R0019724             JUNCTION     0.011    0.011     0  02:10     0.00421     0.00421      -0.285
  R0021433             JUNCTION     0.052    0.052     0  02:10      0.0231      0.0231      -0.316
  R0021435             JUNCTION     0.034    0.077     0  02:10      0.0143      0.0375      -0.091
  R0019769             OUTFALL      0.000    1.032     0  02:13           0       0.662       0.000
  
  
  **********************
  Node Surcharge Summary
  **********************
  
  Surcharging occurs when water rises above the top of the highest conduit.
  ---------------------------------------------------------------------
                                               Max. Height   Min. Depth
                                   Hours       Above Crown    Below Rim
  Node                 Type      Surcharged         Meters       Meters
  ---------------------------------------------------------------------
  R0019466             JUNCTION        0.10          0.260        2.250
  R0019468             JUNCTION        0.09          0.208        2.222
  R0019825             JUNCTION        0.05          0.170        1.030
  R0019345             JUNCTION        0.01          0.025        1.725
  R0019373             JUNCTION        0.02          0.054        2.446
  R0019254             JUNCTION        0.04          0.176        1.654
  R0019939             JUNCTION        0.09          0.122        1.498
  R0019849             JUNCTION        0.10          0.140        1.790
  R0021442             JUNCTION        0.12          0.707        1.043
  R0019247             JUNCTION        0.01          0.018        1.842
  R0019252             JUNCTION        0.02          0.150        1.490
  R0019942             JUNCTION        0.06          0.084        1.566
  R0021433             JUNCTION        0.06          0.667        1.183
  R0021435             JUNCTION        0.10          0.778        1.032
  
  
  *********************
  Node Flooding Summary
  *********************
  
  No nodes were flooded.
  
  
  ***********************
  Outfall Loading Summary
  ***********************
  
  -----------------------------------------------------------
                         Flow       Avg       Max       Total
                         Freq      Flow      Flow      Volume
  Outfall Node           Pcnt       CMS       CMS    10^6 ltr
  -----------------------------------------------------------
  R0019769               3.86     0.063     1.032       0.662
  -----------------------------------------------------------
  System                 3.86     0.063     1.032       0.662
  
  
  ********************
  Link Flow Summary
  ********************
  
  -----------------------------------------------------------------------------
                                 Maximum  Time of Max   Maximum    Max/    Max/
                                  |Flow|   Occurrence   |Veloc|    Full    Full
  Link                 Type          CMS  days hr:min     m/sec    Flow   Depth
  -----------------------------------------------------------------------------
  H0014431             CONDUIT     0.075     0  02:09      1.07    1.39    1.00
  H0014433             CONDUIT     0.046     0  02:10      0.76    0.59    1.00
  H0014352             CONDUIT     1.020     0  02:12      2.77    0.42    0.57
  H0014373             CONDUIT     1.035     0  02:13      3.70    0.48    0.45
  H0017981             CONDUIT     0.081     0  02:10      1.20    2.29    0.91
  H0017755             CONDUIT     0.140     0  02:11      1.41    1.13    0.73
  H0017791             CONDUIT     0.101     0  02:10      0.64    0.15    0.30
  H0017357             CONDUIT     0.029     0  02:10      0.48    0.46    0.80
  H0018216             CONDUIT     0.081     0  02:10      1.15    1.48    1.00
  H0016792             CONDUIT     0.623     0  02:12      1.85    0.36    0.53
  H0019507             CONDUIT     0.041     0  02:10      0.76    0.56    0.98
  H0019998             CONDUIT     0.767     0  02:12      3.07    0.31    0.42
  H0019576             CONDUIT     0.662     0  02:12      2.23    0.44    0.47
  H0020087             CONDUIT     0.009     0  02:08      0.24    0.04    0.41
  H0020211             CONDUIT     0.633     0  02:12      1.82    1.58    0.54
  H0018982             CONDUIT     0.147     0  02:10      0.86    0.24    0.34
  H0018753             CONDUIT     0.039     0  02:09      0.64    0.55    1.00
  H0018845             CONDUIT     0.000     0  00:00      0.00    0.00    0.00
  H0018863             CONDUIT     0.049     0  02:10      0.70    1.16    1.00
  H0019156             CONDUIT     0.000     0  00:00      0.00    0.00    0.00
  H0018929             CONDUIT     0.315     0  02:11      1.17    0.27    0.44
  H0018440             CONDUIT     0.122     0  02:10      1.72    2.18    1.00
  H0018456             CONDUIT     0.135     0  02:11      1.41    0.82    0.71
  H0018968             CONDUIT     1.029     0  02:13      4.20    0.40    0.41
  H0022036             CONDUIT     0.037     0  02:10      0.60    0.03    0.18
  H0021806             CONDUIT     0.142     0  02:10      1.19    1.26    0.90
  H0022111             CONDUIT     0.072     0  02:10      0.78    0.52    0.49
  H0021440             CONDUIT     0.584     0  02:11      2.22    0.38    0.43
  H0021704             CONDUIT     0.362     0  02:11      1.36    0.69    0.44
  H0020521             CONDUIT     0.046     0  02:10      0.65    0.92    1.00
  H0020755             CONDUIT     0.050     0  02:10      0.65    0.55    0.65
  H0020530             CONDUIT     1.066     0  02:12      2.76    0.91    0.58
  H0020618             CONDUIT     0.748     0  02:12      2.87    0.46    0.43
  H0021163             CONDUIT     0.082     0  02:10      1.16    1.37    1.00
  H0020497             CONDUIT     0.000     0  00:00      0.00    0.00    0.68
  H0024325             CONDUIT     0.147     0  02:10      1.77    0.44    0.44
  H0023585             CONDUIT     0.313     0  02:10      2.41    0.72    0.63
  H0024098             CONDUIT     0.123     0  02:10      1.73    1.43    1.00
  H0024235             CONDUIT     0.156     0  02:11      1.40    0.64    0.56
  H0024282             CONDUIT     0.000     0  00:00      0.00    0.00    0.00
  H0024308             CONDUIT     1.032     0  02:13      4.70    0.30    0.38
  H0024498             CONDUIT     0.096     0  02:09      1.36    1.49    1.00
  H0026990             CONDUIT     0.045     0  02:10      0.79    0.34    0.49
  H0041650             CONDUIT     0.166     0  02:11      0.78    0.19    0.38
  H0041011             CONDUIT     0.079     0  02:10      1.12    0.78    1.00
  H0045103             CONDUIT     0.138     0  02:11      0.73    0.17    0.36
  H0045104             CONDUIT     1.030     0  02:13      3.93    0.37    0.43
  H0045105             CONDUIT     0.011     0  02:10      0.40    0.18    0.41
  H0045106             CONDUIT     0.242     0  02:10      2.35    0.33    0.52
  H0045107             CONDUIT     0.043     0  02:10      0.79    0.71    1.00
  H0045108             CONDUIT     0.070     0  02:10      0.99    1.25    1.00
  
  
  ***************************
  Flow Classification Summary
  ***************************
  
  -------------------------------------------------------------------------------------
                      Adjusted    ---------- Fraction of Time in Flow Class ---------- 
                       /Actual         Up    Down  Sub   Sup   Up    Down  Norm  Inlet 
  Conduit               Length    Dry  Dry   Dry   Crit  Crit  Crit  Crit  Ltd   Ctrl  
  -------------------------------------------------------------------------------------
  H0014431                1.00   0.03  0.00  0.00  0.97  0.00  0.00  0.00  0.97  0.00
  H0014433                1.00   0.03  0.00  0.00  0.97  0.00  0.00  0.00  0.97  0.00
  H0014352                1.00   0.03  0.00  0.00  0.96  0.02  0.00  0.00  0.97  0.00
  H0014373                1.00   0.03  0.00  0.00  0.94  0.03  0.00  0.00  0.93  0.00
  H0017981                1.00   0.03  0.00  0.00  0.00  0.00  0.00  0.97  0.00  0.00
  H0017755                1.00   0.03  0.00  0.00  0.00  0.00  0.00  0.97  0.00  0.00
  H0017791                1.00   0.03  0.00  0.00  0.97  0.00  0.00  0.00  0.97  0.00
  H0017357                1.00   0.03  0.97  0.00  0.00  0.00  0.00  0.00  0.97  0.00
  H0018216                1.00   0.03  0.93  0.00  0.04  0.00  0.00  0.00  0.97  0.00
  H0016792                1.00   0.03  0.93  0.00  0.04  0.00  0.00  0.00  0.97  0.00
  H0019507                1.00   0.03  0.00  0.00  0.97  0.00  0.00  0.00  0.97  0.00
  H0019998                1.00   0.03  0.00  0.00  0.94  0.03  0.00  0.00  0.05  0.00
  H0019576                1.00   0.03  0.00  0.00  0.96  0.01  0.00  0.00  0.05  0.00
  H0020087                1.00   0.03  0.96  0.00  0.01  0.00  0.00  0.00  0.97  0.00
  H0020211                1.00   0.03  0.00  0.00  0.97  0.00  0.00  0.00  0.92  0.00
  H0018982                1.00   0.03  0.00  0.00  0.97  0.00  0.00  0.00  0.95  0.00
  H0018753                1.00   0.03  0.00  0.00  0.97  0.00  0.00  0.00  0.97  0.00
  H0018845                1.00   1.00  0.00  0.00  0.00  0.00  0.00  0.00  0.00  0.00
  H0018863                1.00   0.03  0.00  0.00  0.97  0.00  0.00  0.00  0.97  0.00
  H0019156                1.00   1.00  0.00  0.00  0.00  0.00  0.00  0.00  0.00  0.00
  H0018929                1.00   0.03  0.93  0.00  0.04  0.00  0.00  0.00  0.97  0.00
  H0018440                1.00   0.03  0.00  0.00  0.97  0.00  0.00  0.00  0.97  0.00
  H0018456                1.00   0.03  0.00  0.00  0.97  0.00  0.00  0.00  0.97  0.00
  H0018968                1.00   0.03  0.92  0.00  0.01  0.04  0.00  0.00  0.94  0.00
  H0022036                1.00   0.03  0.00  0.00  0.01  0.00  0.00  0.97  0.01  0.00
  H0021806                1.00   0.03  0.93  0.00  0.04  0.00  0.00  0.00  0.97  0.00
  H0022111                1.00   0.03  0.00  0.00  0.97  0.00  0.00  0.00  0.00  0.00
  H0021440                1.00   0.03  0.00  0.00  0.96  0.02  0.00  0.00  0.02  0.00
  H0021704                1.00   0.03  0.00  0.00  0.00  0.00  0.00  0.97  0.00  0.00
  H0020521                1.00   0.03  0.00  0.00  0.97  0.00  0.00  0.00  0.97  0.00
  H0020755                1.00   0.03  0.94  0.00  0.03  0.00  0.00  0.00  0.97  0.00
  H0020530                1.00   0.03  0.00  0.00  0.96  0.01  0.00  0.00  0.00  0.00
  H0020618                1.00   0.03  0.00  0.00  0.95  0.02  0.00  0.00  0.93  0.00
  H0021163                1.00   0.03  0.00  0.00  0.97  0.00  0.00  0.00  0.95  0.00
  H0020497                1.20   0.03  0.97  0.00  0.00  0.00  0.00  0.00  0.00  0.00
  H0024325                1.00   0.03  0.00  0.00  0.96  0.02  0.00  0.00  0.95  0.00
  H0023585                1.00   0.03  0.00  0.00  0.00  0.00  0.00  0.97  0.00  0.00
  H0024098                1.00   0.03  0.94  0.00  0.04  0.00  0.00  0.00  0.97  0.00
  H0024235                1.00   0.03  0.00  0.00  0.00  0.00  0.00  0.97  0.00  0.00
  H0024282                1.00   1.00  0.00  0.00  0.00  0.00  0.00  0.00  0.00  0.00
  H0024308                1.00   0.03  0.00  0.00  0.92  0.05  0.00  0.00  0.01  0.00
  H0024498                1.00   0.03  0.00  0.00  0.00  0.00  0.00  0.97  0.00  0.00
  H0026990                1.00   0.03  0.00  0.00  0.97  0.00  0.00  0.00  0.97  0.00
  H0041650                1.00   0.96  0.01  0.00  0.03  0.00  0.00  0.00  0.97  0.00
  H0041011                1.00   0.03  0.00  0.00  0.97  0.00  0.00  0.00  0.97  0.00
  H0045103                1.00   0.03  0.00  0.00  0.97  0.00  0.00  0.00  0.95  0.00
  H0045104                1.00   0.03  0.00  0.00  0.93  0.04  0.00  0.00  0.05  0.00
  H0045105                1.00   0.03  0.00  0.00  0.97  0.00  0.00  0.00  0.97  0.00
  H0045106                1.00   0.03  0.93  0.00  0.02  0.02  0.00  0.00  0.97  0.00
  H0045107                1.00   0.03  0.00  0.00  0.97  0.00  0.00  0.00  0.97  0.00
  H0045108                1.00   0.03  0.00  0.00  0.97  0.00  0.00  0.00  0.97  0.00
  
  
  *************************
  Conduit Surcharge Summary
  *************************
  
  ----------------------------------------------------------------------------
                                                           Hours        Hours 
                         --------- Hours Full --------   Above Full   Capacity
  Conduit                Both Ends  Upstream  Dnstream   Normal Flow   Limited
  ----------------------------------------------------------------------------
  H0014431                    0.09      0.10      0.09      0.11         0.09
  H0014433                    0.01      0.01      0.05      0.01         0.01
  H0017981                    0.01      0.01      0.01      0.13         0.01
  H0017755                    0.01      0.01      0.01      0.03         0.01
  H0017357                    0.01      0.01      0.02      0.01         0.01
  H0018216                    0.01      0.04      0.01      0.07         0.03
  H0019507                    0.01      0.01      0.09      0.01         0.01
  H0020211                    0.01      0.01      0.01      0.09         0.01
  H0018753                    0.02      0.02      0.10      0.01         0.01
  H0018863                    0.09      0.09      0.10      0.01         0.01
  H0018440                    0.06      0.12      0.06      0.15         0.11
  H0021806                    0.01      0.01      0.01      0.05         0.01
  H0020521                    0.02      0.02      0.04      0.01         0.01
  H0021163                    0.04      0.05      0.06      0.05         0.03
  H0024098                    0.09      0.10      0.13      0.06         0.04
  H0024498                    0.01      0.09      0.01      0.12         0.05
  H0041011                    0.06      0.06      0.10      0.01         0.01
  H0045107                    0.06      0.06      0.10      0.01         0.01
  H0045108                    0.10      0.10      0.12      0.04         0.04
  

  Analysis begun on:  Fri Mar 22 15:57:06 2024
  Analysis ended on:  Fri Mar 22 15:57:12 2024
  Total elapsed time: 00:00:06