
  EPA STORM WATER MANAGEMENT MODEL - VERSION 5.2 (Build 5.2.4)
  PYSWMM TOOLKIT API - VERSION v1.0 (2023-11-27)
  ------------------------------------------------------------

  Gievenbeck_e2_T20D360 
  
  ****************
  Analysis Options
  ****************
  Flow Units ............... CMS
  Process Models:
    Rainfall/Runoff ........ YES
    RDII ................... NO
    Snowmelt ............... NO
    Groundwater ............ NO
    Flow Routing ........... YES
    Ponding Allowed ........ NO
    Water Quality .......... NO
  Infiltration Method ...... HORTON
  Flow Routing Method ...... DYNWAVE
  Surcharge Method ......... SLOT
  Starting Date ............ 01/01/2024 00:00:00
  Ending Date .............. 01/04/2024 04:00:00
  Antecedent Dry Days ...... 14.0
  Report Time Step ......... 00:01:00
  Wet Time Step ............ 00:01:00
  Dry Time Step ............ 00:01:00
  Routing Time Step ........ 1.00 sec
  Variable Time Step ....... YES
  Maximum Trials ........... 8
  Number of Threads ........ 1
  Head Tolerance ........... 0.001500 m
  
  
  **************************        Volume         Depth
  Runoff Quantity Continuity     hectare-m            mm
  **************************     ---------       -------
  Total Precipitation ......         0.524        51.780
  Evaporation Loss .........         0.010         0.952
  Infiltration Loss ........         0.235        23.214
  Surface Runoff ...........         0.280        27.674
  Final Storage ............         0.000         0.000
  Continuity Error (%) .....        -0.117
  
  
  **************************        Volume        Volume
  Flow Routing Continuity        hectare-m      10^6 ltr
  **************************     ---------     ---------
  Dry Weather Inflow .......         0.000         0.000
  Wet Weather Inflow .......         0.280         2.801
  Groundwater Inflow .......         0.000         0.000
  RDII Inflow ..............         0.000         0.000
  External Inflow ..........         0.000         0.000
  External Outflow .........         0.274         2.742
  Flooding Loss ............         0.006         0.059
  Evaporation Loss .........         0.000         0.000
  Exfiltration Loss ........         0.000         0.000
  Initial Stored Volume ....         0.000         0.000
  Final Stored Volume ......         0.000         0.000
  Continuity Error (%) .....        -0.007
  
  
  *************************
  Highest Continuity Errors
  *************************
  Node R0019206 (10.55%)
  
  
  ***************************
  Time-Step Critical Elements
  ***************************
  None
  
  
  ********************************
  Highest Flow Instability Indexes
  ********************************
  All links are stable.
  
  
  *********************************
  Most Frequent Nonconverging Nodes
  *********************************
  Convergence obtained at all time steps.
  
  
  *************************
  Routing Time Step Summary
  *************************
  Minimum Time Step           :     0.50 sec
  Average Time Step           :     1.00 sec
  Maximum Time Step           :     1.00 sec
  % of Time in Steady State   :     0.00
  Average Iterations per Step :     2.00
  % of Steps Not Converging   :     0.00
  Time Step Frequencies       :
      1.000 -  0.871 sec      :    99.99 %
      0.871 -  0.758 sec      :     0.00 %
      0.758 -  0.660 sec      :     0.00 %
      0.660 -  0.574 sec      :     0.00 %
      0.574 -  0.500 sec      :     0.00 %
  
  
  ***************************
  Subcatchment Runoff Summary
  ***************************
  
  ------------------------------------------------------------------------------------------------------------------------------
                            Total      Total      Total      Total     Imperv       Perv      Total       Total     Peak  Runoff
                           Precip      Runon       Evap      Infil     Runoff     Runoff     Runoff      Runoff   Runoff   Coeff
  Subcatchment                 mm         mm         mm         mm         mm         mm         mm    10^6 ltr      CMS
  ------------------------------------------------------------------------------------------------------------------------------
  EZG_368                   51.78       0.00       0.95      23.38      24.98       6.28      27.51        0.11     0.14   0.531
  EZG_392                   51.78       0.00       0.94      23.23      24.99       6.43      27.67        0.09     0.11   0.534
  EZG_352                   51.78       0.00       0.95      23.61      24.97       6.04      27.27        0.16     0.18   0.527
  EZG_372                   51.78       0.00       0.93      22.75      25.01       6.92      28.18        0.04     0.05   0.544
  EZG_416                   51.78       0.00       0.94      23.17      24.99       6.49      27.74        0.08     0.10   0.536
  EZG_388                   51.78       0.00       0.95      23.44      24.98       6.21      27.45        0.13     0.15   0.530
  EZG_394                   51.78       0.00       0.94      23.14      24.99       6.52      27.77        0.08     0.10   0.536
  EZG_400                   51.78       0.00       0.94      23.10      24.99       6.57      27.81        0.07     0.09   0.537
  EZG_390                   51.78       0.00       0.94      23.22      24.99       6.44      27.68        0.09     0.11   0.535
  EZG_350                   51.78       0.00       0.95      23.44      24.98       6.21      27.44        0.13     0.15   0.530
  EZG_370                   51.78       0.00       0.94      23.29      24.99       6.37      27.60        0.10     0.12   0.533
  EZG_398                   51.78       0.00       0.93      22.60      25.02       7.08      28.34        0.03     0.04   0.547
  EZG_382                   51.78       0.00       0.93      22.54      25.02       7.13      28.40        0.03     0.04   0.548
  EZG_374                   51.78       0.00       1.14      19.08      29.97       6.15      31.62        0.12     0.14   0.611
  EZG_412                   51.78       0.00       0.92      22.20      25.03       7.49      28.77        0.01     0.02   0.556
  EZG_344                   51.78       0.00       0.94      23.09      24.99       6.58      27.82        0.07     0.09   0.537
  EZG_376                   51.78       0.00       0.94      22.95      25.00       6.71      27.96        0.06     0.07   0.540
  EZG_356                   51.78       0.00       0.95      23.66      24.97       5.99      27.22        0.17     0.20   0.526
  EZG_386                   51.78       0.00       0.96      23.81      24.97       5.84      27.06        0.22     0.24   0.523
  EZG_380                   51.78       0.00       0.95      23.34      24.98       6.31      27.55        0.11     0.13   0.532
  EZG_378                   51.78       0.00       0.94      23.26      24.99       6.39      27.63        0.09     0.12   0.534
  EZG_414                   51.78       0.00       0.93      22.54      25.02       7.14      28.41        0.02     0.04   0.549
  EZG_402                   51.78       0.00       0.94      23.23      24.99       6.43      27.67        0.09     0.11   0.534
  EZG_358                   51.78       0.00       0.95      23.65      24.97       6.00      27.22        0.17     0.19   0.526
  EZG_364                   51.78       0.00       0.95      23.65      24.97       6.00      27.22        0.17     0.19   0.526
  EZG_410                   51.78       0.00       0.94      22.98      25.00       6.68      27.93        0.06     0.08   0.539
  EZG_366                   51.78       0.00       0.94      23.06      25.00       6.61      27.85        0.07     0.08   0.538
  EZG_18259                 51.78       0.00       0.94      23.05      25.00       6.61      27.86        0.07     0.08   0.538
  EZG_18258                 51.78       0.00       0.93      22.38      25.03       7.30      28.58        0.02     0.03   0.552
  EZG_346                   51.78       0.00       0.93      23.73      24.49       6.37      27.19        0.10     0.12   0.525
  EZG_348                   51.78       0.00       0.92      23.43      24.50       6.67      27.50        0.06     0.08   0.531
  
  
  ******************
  Node Depth Summary
  ******************
  
  ---------------------------------------------------------------------------------
                                 Average  Maximum  Maximum  Time of Max    Reported
                                   Depth    Depth      HGL   Occurrence   Max Depth
  Node                 Type       Meters   Meters   Meters  days hr:min      Meters
  ---------------------------------------------------------------------------------
  R0019466             JUNCTION     0.01     2.05    71.50     0  04:05        1.90
  R0019468             JUNCTION     0.01     2.08    71.39     0  04:05        1.86
  R0019831             JUNCTION     0.00     1.66    70.83     0  04:04        1.66
  R0019825             JUNCTION     0.01     1.50    70.34     0  04:02        1.50
  R0019843             JUNCTION     0.01     1.52    69.15     0  04:04        1.40
  R0019368             JUNCTION     0.01     1.65    68.44     0  04:05        1.64
  R0019369             JUNCTION     0.01     0.81    67.40     0  04:06        0.80
  R0019370             JUNCTION     0.01     0.62    66.52     0  04:06        0.62
  R0019345             JUNCTION     0.01     1.27    71.17     0  04:05        1.25
  R0019346             JUNCTION     0.01     1.06    70.86     0  04:05        1.04
  R0043600             JUNCTION     0.01     0.67    70.34     0  04:05        0.67
  R0019203             JUNCTION     0.01     0.68    70.22     0  04:06        0.67
  R0043594             JUNCTION     0.01     0.53    70.26     0  04:05        0.52
  R0021458             JUNCTION     0.01     0.61    70.26     0  04:05        0.61
  R0019202             JUNCTION     0.01     0.65    70.23     0  04:05        0.65
  R0019373             JUNCTION     0.00     1.64    71.31     0  04:05        1.57
  R0019254             JUNCTION     0.01     1.99    72.03     0  04:05        1.99
  R0019716             JUNCTION     0.01     1.01    70.02     0  04:06        1.01
  R0019946             JUNCTION     0.01     1.17    69.79     0  04:05        1.11
  R0013935             JUNCTION     0.00     1.62    70.45     0  04:04        1.62
  R0019939             JUNCTION     0.01     1.60    70.17     0  04:05        1.60
  R0019944             JUNCTION     0.01     1.00    69.28     0  04:05        0.96
  R0043703             JUNCTION     0.01     0.99    69.59     0  04:05        0.94
  R0019945             JUNCTION     0.01     1.00    69.40     0  04:05        0.94
  R0039621             JUNCTION     0.00     1.56    71.13     0  04:05        1.28
  R0019838             JUNCTION     0.01     1.74    71.20     0  04:05        1.44
  R0039606             JUNCTION     0.01     0.64    70.23     0  04:05        0.64
  R0019204             JUNCTION     0.00     0.00    69.91     0  00:00        0.00
  R0019205             JUNCTION     0.00     0.00    69.62     0  00:00        0.00
  R0019849             JUNCTION     0.01     1.39    69.91     0  04:05        1.37
  R0019371             JUNCTION     0.00     0.00    70.41     0  00:00        0.00
  R0019718             JUNCTION     0.01     0.78    70.20     0  04:06        0.78
  R0021442             JUNCTION     0.01     2.05    72.10     0  04:02        2.05
  R0019247             JUNCTION     0.01     1.20    71.08     0  04:05        1.19
  R0019719             JUNCTION     0.01     0.80    70.48     0  04:05        0.79
  R0019767             JUNCTION     0.01     0.66    65.39     0  04:06        0.66
  R0019768             JUNCTION     0.01     0.54    64.31     0  04:06        0.54
  R0021453             JUNCTION     0.00     0.30    70.25     0  04:05        0.30
  R0019839             JUNCTION     0.01     1.67    71.06     0  04:05        1.37
  R0019717             JUNCTION     0.01     0.78    70.12     0  04:06        0.76
  R0019252             JUNCTION     0.01     1.94    72.13     0  04:03        1.94
  R0019721             JUNCTION     0.00     1.14    71.01     0  04:05        1.13
  R0019942             JUNCTION     0.01     1.35    70.00     0  04:05        1.34
  R0019206             JUNCTION     0.00     0.02    69.09     0  04:05        0.02
  R0019840             JUNCTION     0.01     1.65    70.62     0  04:05        1.52
  R0043702             JUNCTION     0.01     1.81    70.51     0  04:05        1.71
  R0019723             JUNCTION     0.00     1.06    71.14     0  04:05        1.04
  R0019724             JUNCTION     0.00     1.00    71.16     0  04:05        0.98
  R0021433             JUNCTION     0.01     2.15    72.54     0  04:02        2.15
  R0021435             JUNCTION     0.01     2.11    72.29     0  04:02        2.11
  R0019769             OUTFALL      0.01     0.54    63.92     0  04:06        0.54
  
  
  *******************
  Node Inflow Summary
  *******************
  
  -------------------------------------------------------------------------------------------------
                                  Maximum  Maximum                  Lateral       Total        Flow
                                  Lateral    Total  Time of Max      Inflow      Inflow     Balance
                                   Inflow   Inflow   Occurrence      Volume      Volume       Error
  Node                 Type           CMS      CMS  days hr:min    10^6 ltr    10^6 ltr     Percent
  -------------------------------------------------------------------------------------------------
  R0019466             JUNCTION     0.136    0.136     0  04:05       0.114       0.179       0.048
  R0019468             JUNCTION     0.085    0.162     0  04:04      0.0667       0.234      -0.022
  R0019831             JUNCTION     0.110    0.110     0  04:05      0.0896      0.0896       0.101
  R0019825             JUNCTION     0.110    0.211     0  04:05      0.0899       0.179       0.125
  R0019843             JUNCTION     0.000    2.357     0  04:04           0        2.74      -0.016
  R0019368             JUNCTION     0.000    2.328     0  04:05           0        2.74      -0.023
  R0019369             JUNCTION     0.000    2.328     0  04:06           0        2.74      -0.018
  R0019370             JUNCTION     0.000    2.305     0  04:06           0        2.74       0.001
  R0019345             JUNCTION     0.000    0.160     0  04:03           0       0.169       0.015
  R0019346             JUNCTION     0.017    0.296     0  04:05      0.0115       0.289       0.006
  R0043600             JUNCTION     0.000    0.216     0  04:04           0       0.303      -0.087
  R0019203             JUNCTION     0.036    0.720     0  04:05      0.0251        0.77      -0.007
  R0043594             JUNCTION     0.184    0.256     0  04:05       0.161       0.232      -0.004
  R0021458             JUNCTION     0.148    0.339     0  04:05       0.126       0.358       0.001
  R0019202             JUNCTION     0.052    0.498     0  04:06      0.0381        0.44      -0.279
  R0019373             JUNCTION     0.120    0.171     0  04:05       0.099       0.111       1.002
  R0019254             JUNCTION     0.101    0.166     0  04:03      0.0808       0.169       0.033
  R0019716             JUNCTION     0.147    1.501     0  04:05       0.125        1.57      -0.012
  R0019946             JUNCTION     0.000    1.437     0  04:05           0        1.57      -0.000
  R0013935             JUNCTION     0.096    0.096     0  04:05       0.077       0.077       0.079
  R0019939             JUNCTION     0.039    0.122     0  04:04      0.0281       0.104      -0.070
  R0019944             JUNCTION     0.090    1.744     0  04:05      0.0716        1.99       0.019
  R0043703             JUNCTION     0.108    1.529     0  04:05      0.0876        1.65      -0.005
  R0019945             JUNCTION     0.000    1.688     0  04:05           0        1.92      -0.002
  R0039621             JUNCTION     0.000    0.087     0  04:04           0     0.00438      -3.788
  R0019838             JUNCTION     0.197    0.198     0  04:04       0.174       0.179      -0.047
  R0039606             JUNCTION     0.000    0.318     0  04:06           0       0.358       0.024
  R0019204             JUNCTION     0.000    0.000     0  00:00           0           0       0.000 ltr
  R0019205             JUNCTION     0.000    0.000     0  00:00           0           0       0.000 ltr
  R0019849             JUNCTION     0.000    0.214     0  04:04           0       0.265      -0.000
  R0019371             JUNCTION     0.000    0.000     0  00:00           0           0       0.000 ltr
  R0019718             JUNCTION     0.129    0.812     0  04:05       0.107       0.877      -0.454
  R0021442             JUNCTION     0.142    0.214     0  04:05        0.12       0.257       0.025
  R0019247             JUNCTION     0.073    0.218     0  04:05      0.0558       0.304       0.104
  R0019719             JUNCTION     0.076    0.369     0  04:05      0.0587       0.347       0.527
  R0019767             JUNCTION     0.000    2.304     0  04:06           0        2.74      -0.003
  R0019768             JUNCTION     0.000    2.301     0  04:06           0        2.74       0.005
  R0021453             JUNCTION     0.089    0.089     0  04:05      0.0704      0.0704      -0.049
  R0019839             JUNCTION     0.195    0.354     0  04:05       0.172       0.347       0.054
  R0019717             JUNCTION     0.237    1.382     0  04:05       0.216        1.44       0.110
  R0019252             JUNCTION     0.116    0.116     0  04:05      0.0947      0.0947      -0.017
  R0019721             JUNCTION     0.035    0.137     0  04:05      0.0247       0.109       0.097
  R0019942             JUNCTION     0.000    0.123     0  04:02           0        0.16      -0.217
  R0019206             JUNCTION     0.000    0.015     0  04:04           0    5.46e-05      11.792
  R0019840             JUNCTION     0.000    0.477     0  04:04           0        0.58      -0.018
  R0043702             JUNCTION     0.195    0.652     0  04:05       0.173       0.753       0.299
  R0019723             JUNCTION     0.084    0.107     0  04:05      0.0662      0.0838      -0.147
  R0019724             JUNCTION     0.026    0.032     0  04:03      0.0175      0.0176      -0.314
  R0021433             JUNCTION     0.120    0.120     0  04:05      0.0989      0.0989      -0.091
  R0021435             JUNCTION     0.079    0.150     0  04:05      0.0612       0.153      -0.091
  R0019769             OUTFALL      0.000    2.302     0  04:06           0        2.74       0.000
  
  
  **********************
  Node Surcharge Summary
  **********************
  
  Surcharging occurs when water rises above the top of the highest conduit.
  ---------------------------------------------------------------------
                                               Max. Height   Min. Depth
                                   Hours       Above Crown    Below Rim
  Node                 Type      Surcharged         Meters       Meters
  ---------------------------------------------------------------------
  R0019466             JUNCTION        0.19          1.752        0.758
  R0019468             JUNCTION        0.19          1.782        0.648
  R0019831             JUNCTION        0.13          1.360        0.000
  R0019825             JUNCTION        0.17          1.200        0.000
  R0019843             JUNCTION        0.07          0.621        1.999
  R0019368             JUNCTION        0.09          0.747        0.303
  R0019345             JUNCTION        0.13          0.968        0.782
  R0019346             JUNCTION        0.09          0.656        1.084
  R0043600             JUNCTION        0.11          0.273        2.307
  R0019373             JUNCTION        0.13          1.345        1.155
  R0019254             JUNCTION        0.15          1.689        0.141
  R0019716             JUNCTION        0.02          0.111        1.609
  R0019946             JUNCTION        0.07          0.273        1.247
  R0013935             JUNCTION        0.14          1.320        0.000
  R0019939             JUNCTION        0.19          1.304        0.316
  R0019944             JUNCTION        0.01          0.104        1.426
  R0043703             JUNCTION        0.01          0.091        1.229
  R0019945             JUNCTION        0.01          0.095        1.365
  R0039621             JUNCTION        0.04          1.060        0.000
  R0019838             JUNCTION        0.05          1.245        0.055
  R0019849             JUNCTION        0.21          1.092        0.838
  R0021442             JUNCTION        0.21          1.750        0.000
  R0019247             JUNCTION        0.14          0.796        1.064
  R0019719             JUNCTION        0.06          0.300        1.500
  R0019839             JUNCTION        0.05          1.170        0.480
  R0019252             JUNCTION        0.12          1.640        0.000
  R0019721             JUNCTION        0.09          0.741        0.819
  R0019942             JUNCTION        0.18          1.049        0.601
  R0019840             JUNCTION        0.08          1.146        1.424
  R0043702             JUNCTION        0.10          1.312        1.598
  R0019723             JUNCTION        0.06          0.662        0.658
  R0019724             JUNCTION        0.06          0.697        0.753
  R0021433             JUNCTION        0.16          1.850        0.000
  R0021435             JUNCTION        0.19          1.810        0.000
  
  
  *********************
  Node Flooding Summary
  *********************
  
  Flooding refers to all water that overflows a node, whether it ponds or not.
  --------------------------------------------------------------------------
                                                             Total   Maximum
                                 Maximum   Time of Max       Flood    Ponded
                        Hours       Rate    Occurrence      Volume     Depth
  Node                 Flooded       CMS   days hr:min    10^6 ltr    Meters
  --------------------------------------------------------------------------
  R0019831                0.02     0.010      0  04:05       0.000     0.000
  R0019825                0.07     0.118      0  04:05       0.019     0.000
  R0013935                0.02     0.017      0  04:05       0.001     0.000
  R0039621                0.01     0.037      0  04:05       0.000     0.000
  R0021442                0.07     0.069      0  04:05       0.009     0.000
  R0019252                0.04     0.069      0  04:05       0.007     0.000
  R0021433                0.06     0.048      0  04:05       0.007     0.000
  R0021435                0.08     0.078      0  04:05       0.016     0.000
  
  
  ***********************
  Outfall Loading Summary
  ***********************
  
  -----------------------------------------------------------
                         Flow       Avg       Max       Total
                         Freq      Flow      Flow      Volume
  Outfall Node           Pcnt       CMS       CMS    10^6 ltr
  -----------------------------------------------------------
  R0019769              10.71     0.094     2.302       2.742
  -----------------------------------------------------------
  System                10.71     0.094     2.302       2.742
  
  
  ********************
  Link Flow Summary
  ********************
  
  -----------------------------------------------------------------------------
                                 Maximum  Time of Max   Maximum    Max/    Max/
                                  |Flow|   Occurrence   |Veloc|    Full    Full
  Link                 Type          CMS  days hr:min     m/sec    Flow   Depth
  -----------------------------------------------------------------------------
  H0014431             CONDUIT     0.083     0  04:03      1.17    1.53    1.00
  H0014433             CONDUIT     0.100     0  04:05      1.42    1.28    1.00
  H0014352             CONDUIT     2.328     0  04:05      3.66    0.95    1.00
  H0014373             CONDUIT     2.305     0  04:06      4.31    1.06    0.79
  H0017981             CONDUIT     0.156     0  04:03      2.21    4.43    1.00
  H0017755             CONDUIT     0.215     0  04:04      1.71    1.74    1.00
  H0017791             CONDUIT     0.221     0  04:05      0.71    0.32    0.63
  H0017357             CONDUIT     0.169     0  04:05      2.38    2.69    1.00
  H0018216             CONDUIT     0.160     0  04:03      2.26    2.91    1.00
  H0016792             CONDUIT     1.437     0  04:05      2.26    0.82    1.00
  H0019507             CONDUIT     0.084     0  04:04      1.20    1.17    1.00
  H0019998             CONDUIT     1.782     0  04:04      3.42    0.71    1.00
  H0019576             CONDUIT     1.481     0  04:05      2.61    1.00    1.00
  H0020087             CONDUIT     0.087     0  04:04      0.44    0.38    1.00
  H0020211             CONDUIT     1.443     0  04:05      2.27    3.60    1.00
  H0018982             CONDUIT     0.318     0  04:06      0.85    0.51    0.70
  H0018753             CONDUIT     0.066     0  04:05      0.93    0.94    1.00
  H0018845             CONDUIT     0.000     0  00:00      0.00    0.00    0.00
  H0018863             CONDUIT     0.119     0  04:04      1.68    2.79    1.00
  H0019156             CONDUIT     0.000     0  00:00      0.00    0.00    0.00
  H0018929             CONDUIT     0.721     0  04:05      1.40    0.63    0.81
  H0018440             CONDUIT     0.160     0  04:02      2.26    2.86    1.00
  H0018456             CONDUIT     0.298     0  04:05      2.37    1.81    1.00
  H0018968             CONDUIT     2.301     0  04:06      5.11    0.88    0.67
  H0022036             CONDUIT     0.088     0  04:05      0.55    0.07    0.44
  H0021806             CONDUIT     0.216     0  04:04      1.72    1.92    1.00
  H0022111             CONDUIT     0.181     0  04:05      0.92    1.29    1.00
  H0021440             CONDUIT     1.362     0  04:05      2.51    0.88    0.98
  H0021704             CONDUIT     0.803     0  04:05      1.65    1.53    0.84
  H0020521             CONDUIT     0.081     0  04:03      1.15    1.65    1.00
  H0020755             CONDUIT     0.137     0  04:05      1.09    1.51    1.00
  H0020530             CONDUIT     2.328     0  04:06      3.66    1.99    1.00
  H0020618             CONDUIT     1.684     0  04:07      3.35    1.04    1.00
  H0021163             CONDUIT     0.123     0  04:02      1.74    2.06    1.00
  H0020497             CONDUIT     0.015     0  04:04      0.22    0.03    1.00
  H0024325             CONDUIT     0.335     0  04:05      1.87    1.00    1.00
  H0023585             CONDUIT     0.653     0  04:05      3.33    1.50    1.00
  H0024098             CONDUIT     0.211     0  04:04      2.98    2.46    1.00
  H0024235             CONDUIT     0.368     0  04:05      1.88    1.51    1.00
  H0024282             CONDUIT     0.000     0  00:00      0.00    0.00    0.04
  H0024308             CONDUIT     2.302     0  04:06      5.76    0.67    0.60
  H0024498             CONDUIT     0.156     0  04:04      2.20    2.41    1.00
  H0026990             CONDUIT     0.105     0  04:05      0.84    0.79    1.00
  H0041650             CONDUIT     0.499     0  04:06      1.02    0.58    0.74
  H0041011             CONDUIT     0.117     0  04:02      1.65    1.16    1.00
  H0045103             CONDUIT     0.328     0  04:06      0.94    0.41    0.72
  H0045104             CONDUIT     2.304     0  04:06      4.78    0.82    0.71
  H0045105             CONDUIT     0.027     0  04:05      0.45    0.47    1.00
  H0045106             CONDUIT     0.473     0  04:05      2.41    0.64    1.00
  H0045107             CONDUIT     0.072     0  04:06      1.01    1.18    1.00
  H0045108             CONDUIT     0.090     0  04:07      1.27    1.62    1.00
  
  
  ***************************
  Flow Classification Summary
  ***************************
  
  -------------------------------------------------------------------------------------
                      Adjusted    ---------- Fraction of Time in Flow Class ---------- 
                       /Actual         Up    Down  Sub   Sup   Up    Down  Norm  Inlet 
  Conduit               Length    Dry  Dry   Dry   Crit  Crit  Crit  Crit  Ltd   Ctrl  
  -------------------------------------------------------------------------------------
  H0014431                1.00   0.03  0.86  0.00  0.11  0.00  0.00  0.00  0.96  0.00
  H0014433                1.00   0.03  0.00  0.00  0.97  0.00  0.00  0.00  0.97  0.00
  H0014352                1.00   0.03  0.00  0.00  0.88  0.08  0.00  0.00  0.96  0.00
  H0014373                1.00   0.03  0.00  0.00  0.87  0.10  0.00  0.00  0.85  0.00
  H0017981                1.00   0.03  0.00  0.00  0.00  0.00  0.00  0.97  0.00  0.00
  H0017755                1.00   0.03  0.00  0.00  0.00  0.00  0.00  0.97  0.00  0.00
  H0017791                1.00   0.03  0.00  0.00  0.97  0.00  0.00  0.00  0.96  0.00
  H0017357                1.00   0.03  0.97  0.00  0.00  0.00  0.00  0.00  0.94  0.00
  H0018216                1.00   0.03  0.86  0.00  0.11  0.00  0.00  0.00  0.96  0.00
  H0016792                1.00   0.03  0.85  0.00  0.11  0.00  0.00  0.00  0.96  0.00
  H0019507                1.00   0.03  0.00  0.00  0.97  0.00  0.00  0.00  0.97  0.00
  H0019998                1.00   0.03  0.00  0.00  0.87  0.10  0.00  0.00  0.11  0.00
  H0019576                1.00   0.03  0.00  0.00  0.89  0.08  0.00  0.00  0.10  0.00
  H0020087                1.00   0.03  0.95  0.00  0.02  0.00  0.00  0.00  0.94  0.00
  H0020211                1.00   0.03  0.00  0.00  0.97  0.00  0.00  0.00  0.85  0.00
  H0018982                1.00   0.03  0.00  0.00  0.97  0.00  0.00  0.00  0.87  0.00
  H0018753                1.00   0.03  0.00  0.00  0.97  0.00  0.00  0.00  0.97  0.00
  H0018845                1.00   1.00  0.00  0.00  0.00  0.00  0.00  0.00  0.00  0.00
  H0018863                1.00   0.03  0.00  0.00  0.97  0.00  0.00  0.00  0.96  0.00
  H0019156                1.00   1.00  0.00  0.00  0.00  0.00  0.00  0.00  0.00  0.00
  H0018929                1.00   0.03  0.86  0.00  0.11  0.00  0.00  0.00  0.96  0.00
  H0018440                1.00   0.03  0.00  0.00  0.97  0.00  0.00  0.00  0.96  0.00
  H0018456                1.00   0.03  0.00  0.00  0.97  0.00  0.00  0.00  0.96  0.00
  H0018968                1.00   0.03  0.00  0.00  0.86  0.10  0.00  0.00  0.87  0.00
  H0022036                1.00   0.03  0.00  0.00  0.04  0.04  0.00  0.89  0.03  0.00
  H0021806                1.00   0.03  0.86  0.00  0.11  0.00  0.00  0.00  0.89  0.00
  H0022111                1.00   0.03  0.00  0.00  0.97  0.00  0.00  0.00  0.00  0.00
  H0021440                1.00   0.03  0.00  0.00  0.88  0.08  0.00  0.00  0.02  0.00
  H0021704                1.00   0.03  0.00  0.00  0.00  0.00  0.00  0.97  0.00  0.00
  H0020521                1.00   0.03  0.00  0.00  0.97  0.00  0.00  0.00  0.96  0.00
  H0020755                1.00   0.03  0.87  0.00  0.10  0.00  0.00  0.00  0.96  0.00
  H0020530                1.00   0.03  0.00  0.00  0.89  0.08  0.00  0.00  0.02  0.00
  H0020618                1.00   0.03  0.00  0.00  0.88  0.09  0.00  0.00  0.88  0.00
  H0021163                1.00   0.03  0.00  0.00  0.95  0.02  0.00  0.00  0.87  0.00
  H0020497                1.20   0.03  0.97  0.00  0.00  0.00  0.00  0.00  0.95  0.00
  H0024325                1.00   0.03  0.00  0.00  0.88  0.08  0.00  0.00  0.87  0.00
  H0023585                1.00   0.03  0.00  0.00  0.00  0.00  0.00  0.97  0.00  0.00
  H0024098                1.00   0.03  0.86  0.00  0.10  0.00  0.00  0.00  0.96  0.00
  H0024235                1.00   0.03  0.00  0.00  0.00  0.00  0.00  0.97  0.00  0.00
  H0024282                1.00   1.00  0.00  0.00  0.00  0.00  0.00  0.00  0.00  0.00
  H0024308                1.00   0.03  0.00  0.00  0.85  0.12  0.00  0.00  0.04  0.00
  H0024498                1.00   0.03  0.00  0.00  0.00  0.00  0.00  0.97  0.00  0.00
  H0026990                1.00   0.03  0.00  0.00  0.97  0.00  0.00  0.00  0.97  0.00
  H0041650                1.00   0.89  0.01  0.00  0.10  0.00  0.00  0.00  0.95  0.00
  H0041011                1.00   0.03  0.00  0.00  0.97  0.00  0.00  0.00  0.96  0.00
  H0045103                1.00   0.03  0.00  0.00  0.97  0.00  0.00  0.00  0.88  0.00
  H0045104                1.00   0.03  0.00  0.00  0.86  0.11  0.00  0.00  0.11  0.00
  H0045105                1.00   0.03  0.00  0.00  0.97  0.00  0.00  0.00  0.97  0.00
  H0045106                1.00   0.03  0.00  0.00  0.88  0.09  0.00  0.00  0.97  0.00
  H0045107                1.00   0.03  0.00  0.00  0.97  0.00  0.00  0.00  0.96  0.00
  H0045108                1.00   0.03  0.00  0.00  0.97  0.00  0.00  0.00  0.97  0.00
  
  
  *************************
  Conduit Surcharge Summary
  *************************
  
  ----------------------------------------------------------------------------
                                                           Hours        Hours 
                         --------- Hours Full --------   Above Full   Capacity
  Conduit                Both Ends  Upstream  Dnstream   Normal Flow   Limited
  ----------------------------------------------------------------------------
  H0014431                    0.19      0.19      0.19      0.19         0.16
  H0014433                    0.13      0.13      0.17      0.05         0.05
  H0014352                    0.07      0.07      0.09      0.01         0.01
  H0014373                    0.01      0.01      0.01      0.05         0.01
  H0017981                    0.10      0.13      0.10      0.23         0.12
  H0017755                    0.10      0.11      0.10      0.15         0.11
  H0017357                    0.06      0.06      0.13      0.09         0.01
  H0018216                    0.13      0.15      0.13      0.17         0.14
  H0016792                    0.02      0.02      0.07      0.01         0.01
  H0019507                    0.14      0.14      0.19      0.04         0.04
  H0019998                    0.01      0.01      0.07      0.01         0.01
  H0019576                    0.01      0.01      0.01      0.01         0.01
  H0020087                    0.04      0.04      0.05      0.01         0.01
  H0020211                    0.01      0.07      0.01      0.20         0.03
  H0018753                    0.13      0.13      0.19      0.01         0.01
  H0018863                    0.19      0.19      0.21      0.13         0.12
  H0018440                    0.16      0.21      0.16      0.25         0.19
  H0018456                    0.09      0.09      0.09      0.11         0.09
  H0021806                    0.11      0.14      0.11      0.15         0.13
  H0022111                    0.05      0.05      0.05      0.05         0.03
  H0021440                    0.01      0.01      0.02      0.01         0.01
  H0021704                    0.01      0.01      0.01      0.11         0.01
  H0020521                    0.12      0.12      0.15      0.10         0.09
  H0020755                    0.09      0.09      0.09      0.04         0.04
  H0020530                    0.01      0.09      0.01      0.14         0.08
  H0020618                    0.01      0.01      0.01      0.04         0.01
  H0021163                    0.16      0.17      0.18      0.16         0.15
  H0020497                    0.01      0.01     71.92      0.01         0.01
  H0024325                    0.05      0.05      0.08      0.01         0.01
  H0023585                    0.07      0.10      0.07      0.11         0.09
  H0024098                    0.21      0.21      0.24      0.17         0.16
  H0024235                    0.05      0.06      0.05      0.08         0.05
  H0024498                    0.08      0.19      0.08      0.22         0.16
  H0026990                    0.06      0.06      0.09      0.01         0.01
  H0041011                    0.18      0.18      0.21      0.05         0.03
  H0045105                    0.06      0.06      0.07      0.01         0.01
  H0045106                    0.08      0.08      0.10      0.01         0.01
  H0045107                    0.16      0.16      0.19      0.07         0.07
  H0045108                    0.19      0.19      0.21      0.15         0.15
  

  Analysis begun on:  Fri Mar 22 15:56:02 2024
  Analysis ended on:  Fri Mar 22 15:56:14 2024
  Total elapsed time: 00:00:12