
  EPA STORM WATER MANAGEMENT MODEL - VERSION 5.2 (Build 5.2.4)
  PYSWMM TOOLKIT API - VERSION v1.0 (2023-11-27)
  ------------------------------------------------------------

  Gievenbeck_e2_T2D1080 
  
  ****************
  Analysis Options
  ****************
  Flow Units ............... CMS
  Process Models:
    Rainfall/Runoff ........ YES
    RDII ................... NO
    Snowmelt ............... NO
    Groundwater ............ NO
    Flow Routing ........... YES
    Ponding Allowed ........ NO
    Water Quality .......... NO
  Infiltration Method ...... HORTON
  Flow Routing Method ...... DYNWAVE
  Surcharge Method ......... SLOT
  Starting Date ............ 01/01/2024 00:00:00
  Ending Date .............. 01/04/2024 04:00:00
  Antecedent Dry Days ...... 14.0
  Report Time Step ......... 00:01:00
  Wet Time Step ............ 00:01:00
  Dry Time Step ............ 00:01:00
  Routing Time Step ........ 1.00 sec
  Variable Time Step ....... YES
  Maximum Trials ........... 8
  Number of Threads ........ 1
  Head Tolerance ........... 0.001500 m
  
  
  **************************        Volume         Depth
  Runoff Quantity Continuity     hectare-m            mm
  **************************     ---------       -------
  Total Precipitation ......         0.391        38.670
  Evaporation Loss .........         0.010         0.945
  Infiltration Loss ........         0.210        20.781
  Surface Runoff ...........         0.172        16.971
  Final Storage ............         0.000         0.000
  Continuity Error (%) .....        -0.070
  
  
  **************************        Volume        Volume
  Flow Routing Continuity        hectare-m      10^6 ltr
  **************************     ---------     ---------
  Dry Weather Inflow .......         0.000         0.000
  Wet Weather Inflow .......         0.172         1.718
  Groundwater Inflow .......         0.000         0.000
  RDII Inflow ..............         0.000         0.000
  External Inflow ..........         0.000         0.000
  External Outflow .........         0.172         1.719
  Flooding Loss ............         0.000         0.000
  Evaporation Loss .........         0.000         0.000
  Exfiltration Loss ........         0.000         0.000
  Initial Stored Volume ....         0.000         0.000
  Final Stored Volume ......         0.000         0.000
  Continuity Error (%) .....        -0.043
  
  
  ***************************
  Time-Step Critical Elements
  ***************************
  None
  
  
  ********************************
  Highest Flow Instability Indexes
  ********************************
  All links are stable.
  
  
  *********************************
  Most Frequent Nonconverging Nodes
  *********************************
  Convergence obtained at all time steps.
  
  
  *************************
  Routing Time Step Summary
  *************************
  Minimum Time Step           :     0.21 sec
  Average Time Step           :     1.00 sec
  Maximum Time Step           :     1.00 sec
  % of Time in Steady State   :     0.00
  Average Iterations per Step :     2.00
  % of Steps Not Converging   :     0.00
  Time Step Frequencies       :
      1.000 -  0.871 sec      :   100.00 %
      0.871 -  0.758 sec      :     0.00 %
      0.758 -  0.660 sec      :     0.00 %
      0.660 -  0.574 sec      :     0.00 %
      0.574 -  0.500 sec      :     0.00 %
  
  
  ***************************
  Subcatchment Runoff Summary
  ***************************
  
  ------------------------------------------------------------------------------------------------------------------------------
                            Total      Total      Total      Total     Imperv       Perv      Total       Total     Peak  Runoff
                           Precip      Runon       Evap      Infil     Runoff     Runoff     Runoff      Runoff   Runoff   Coeff
  Subcatchment                 mm         mm         mm         mm         mm         mm         mm    10^6 ltr      CMS
  ------------------------------------------------------------------------------------------------------------------------------
  EZG_368                   38.67       0.00       0.94      20.92      18.41       1.19      16.84        0.07     0.06   0.435
  EZG_392                   38.67       0.00       0.94      20.84      18.42       1.27      16.92        0.05     0.05   0.438
  EZG_352                   38.67       0.00       0.94      21.03      18.41       1.07      16.72        0.10     0.08   0.432
  EZG_372                   38.67       0.00       0.93      20.55      18.43       1.56      17.23        0.02     0.02   0.445
  EZG_416                   38.67       0.00       0.94      20.80      18.42       1.30      16.96        0.05     0.04   0.439
  EZG_388                   38.67       0.00       0.94      20.95      18.41       1.15      16.81        0.08     0.06   0.435
  EZG_394                   38.67       0.00       0.93      20.79      18.42       1.32      16.98        0.05     0.04   0.439
  EZG_400                   38.67       0.00       0.93      20.76      18.42       1.34      17.00        0.04     0.04   0.440
  EZG_390                   38.67       0.00       0.94      20.83      18.42       1.27      16.93        0.05     0.05   0.438
  EZG_350                   38.67       0.00       0.94      20.95      18.41       1.15      16.80        0.08     0.06   0.435
  EZG_370                   38.67       0.00       0.94      20.87      18.42       1.23      16.89        0.06     0.05   0.437
  EZG_398                   38.67       0.00       0.93      20.45      18.44       1.66      17.33        0.02     0.02   0.448
  EZG_382                   38.67       0.00       0.92      20.42      18.44       1.70      17.37        0.02     0.02   0.449
  EZG_374                   38.67       0.00       1.13      17.36      22.09       1.43      20.20        0.08     0.06   0.522
  EZG_412                   38.67       0.00       0.92      20.17      18.45       1.96      17.64        0.01     0.01   0.456
  EZG_344                   38.67       0.00       0.93      20.76      18.42       1.35      17.01        0.04     0.04   0.440
  EZG_376                   38.67       0.00       0.93      20.68      18.43       1.43      17.09        0.03     0.03   0.442
  EZG_356                   38.67       0.00       0.94      21.06      18.41       1.05      16.69        0.11     0.09   0.432
  EZG_386                   38.67       0.00       0.95      21.12      18.40       0.98      16.62        0.13     0.10   0.430
  EZG_380                   38.67       0.00       0.94      20.90      18.41       1.21      16.86        0.07     0.06   0.436
  EZG_378                   38.67       0.00       0.94      20.86      18.42       1.25      16.90        0.06     0.05   0.437
  EZG_414                   38.67       0.00       0.92      20.41      18.44       1.71      17.38        0.02     0.02   0.449
  EZG_402                   38.67       0.00       0.94      20.84      18.42       1.27      16.92        0.05     0.05   0.438
  EZG_358                   38.67       0.00       0.94      21.05      18.41       1.05      16.69        0.11     0.08   0.432
  EZG_364                   38.67       0.00       0.94      21.05      18.41       1.05      16.69        0.11     0.08   0.432
  EZG_410                   38.67       0.00       0.93      20.70      18.42       1.41      17.07        0.04     0.03   0.442
  EZG_366                   38.67       0.00       0.93      20.74      18.42       1.37      17.03        0.04     0.04   0.440
  EZG_18259                 38.67       0.00       0.93      20.74      18.42       1.37      17.03        0.04     0.04   0.440
  EZG_18258                 38.67       0.00       0.92      20.30      18.44       1.82      17.50        0.01     0.01   0.452
  EZG_346                   38.67       0.00       0.92      21.23      18.05       1.21      16.55        0.06     0.05   0.428
  EZG_348                   38.67       0.00       0.91      21.07      18.06       1.38      16.72        0.04     0.03   0.432
  
  
  ******************
  Node Depth Summary
  ******************
  
  ---------------------------------------------------------------------------------
                                 Average  Maximum  Maximum  Time of Max    Reported
                                   Depth    Depth      HGL   Occurrence   Max Depth
  Node                 Type       Meters   Meters   Meters  days hr:min      Meters
  ---------------------------------------------------------------------------------
  R0019466             JUNCTION     0.01     0.61    70.06     0  08:05        0.61
  R0019468             JUNCTION     0.01     0.54    69.85     0  08:05        0.54
  R0019831             JUNCTION     0.00     0.37    69.54     0  08:05        0.28
  R0019825             JUNCTION     0.01     0.64    69.48     0  08:05        0.55
  R0019843             JUNCTION     0.01     0.43    68.06     0  08:06        0.43
  R0019368             JUNCTION     0.02     0.66    67.45     0  08:06        0.65
  R0019369             JUNCTION     0.01     0.46    67.05     0  08:06        0.46
  R0019370             JUNCTION     0.01     0.39    66.29     0  08:07        0.39
  R0019345             JUNCTION     0.01     0.35    70.25     0  08:05        0.33
  R0019346             JUNCTION     0.01     0.30    70.10     0  08:05        0.28
  R0043600             JUNCTION     0.01     0.34    70.01     0  08:05        0.34
  R0019203             JUNCTION     0.01     0.38    69.92     0  08:05        0.38
  R0043594             JUNCTION     0.01     0.26    69.99     0  08:05        0.25
  R0021458             JUNCTION     0.01     0.31    69.96     0  08:05        0.31
  R0019202             JUNCTION     0.01     0.35    69.93     0  08:05        0.35
  R0019373             JUNCTION     0.00     0.40    70.07     0  08:05        0.39
  R0019254             JUNCTION     0.01     0.54    70.58     0  08:05        0.53
  R0019716             JUNCTION     0.01     0.41    69.42     0  08:06        0.41
  R0019946             JUNCTION     0.02     0.57    69.19     0  08:06        0.57
  R0013935             JUNCTION     0.00     0.38    69.21     0  08:05        0.29
  R0019939             JUNCTION     0.01     0.57    69.14     0  08:05        0.52
  R0019944             JUNCTION     0.01     0.36    68.64     0  08:06        0.36
  R0043703             JUNCTION     0.01     0.44    69.04     0  08:06        0.44
  R0019945             JUNCTION     0.01     0.45    68.85     0  08:06        0.45
  R0039621             JUNCTION     0.00     0.16    69.73     0  08:05        0.15
  R0019838             JUNCTION     0.01     0.26    69.72     0  08:05        0.26
  R0039606             JUNCTION     0.01     0.34    69.93     0  08:05        0.34
  R0019204             JUNCTION     0.00     0.00    69.91     0  00:00        0.00
  R0019205             JUNCTION     0.00     0.00    69.62     0  00:00        0.00
  R0019849             JUNCTION     0.01     0.56    69.08     0  08:05        0.53
  R0019371             JUNCTION     0.00     0.00    70.41     0  00:00        0.00
  R0019718             JUNCTION     0.02     0.46    69.88     0  08:05        0.46
  R0021442             JUNCTION     0.01     1.20    71.25     0  08:05        1.14
  R0019247             JUNCTION     0.01     0.52    70.40     0  08:05        0.48
  R0019719             JUNCTION     0.01     0.30    69.98     0  08:05        0.30
  R0019767             JUNCTION     0.01     0.42    65.15     0  08:07        0.41
  R0019768             JUNCTION     0.01     0.35    64.12     0  08:07        0.35
  R0021453             JUNCTION     0.00     0.10    70.05     0  08:05        0.10
  R0019839             JUNCTION     0.01     0.24    69.63     0  08:05        0.24
  R0019717             JUNCTION     0.01     0.41    69.75     0  08:06        0.40
  R0019252             JUNCTION     0.01     0.53    70.72     0  08:05        0.50
  R0019721             JUNCTION     0.01     0.25    70.12     0  08:05        0.25
  R0019942             JUNCTION     0.01     0.51    69.16     0  08:05        0.47
  R0019206             JUNCTION     0.00     0.00    69.07     0  00:00        0.00
  R0019840             JUNCTION     0.01     0.22    69.19     0  08:05        0.21
  R0043702             JUNCTION     0.01     0.33    69.03     0  08:05        0.32
  R0019723             JUNCTION     0.00     0.16    70.24     0  08:05        0.16
  R0019724             JUNCTION     0.00     0.09    70.25     0  08:05        0.09
  R0021433             JUNCTION     0.01     1.18    71.57     0  08:05        1.10
  R0021435             JUNCTION     0.01     1.28    71.46     0  08:05        1.21
  R0019769             OUTFALL      0.01     0.35    63.73     0  08:07        0.35
  
  
  *******************
  Node Inflow Summary
  *******************
  
  -------------------------------------------------------------------------------------------------
                                  Maximum  Maximum                  Lateral       Total        Flow
                                  Lateral    Total  Time of Max      Inflow      Inflow     Balance
                                   Inflow   Inflow   Occurrence      Volume      Volume       Error
  Node                 Type           CMS      CMS  days hr:min    10^6 ltr    10^6 ltr     Percent
  -------------------------------------------------------------------------------------------------
  R0019466             JUNCTION     0.058    0.081     0  08:03      0.0696       0.126       0.090
  R0019468             JUNCTION     0.036    0.102     0  08:05      0.0408       0.166      -0.025
  R0019831             JUNCTION     0.047    0.047     0  08:05      0.0548      0.0548       0.076
  R0019825             JUNCTION     0.047    0.089     0  08:04       0.055        0.11       0.147
  R0019843             JUNCTION     0.000    1.119     0  08:06           0        1.72      -0.002
  R0019368             JUNCTION     0.000    1.124     0  08:06           0        1.72       0.004
  R0019369             JUNCTION     0.000    1.186     0  08:06           0        1.72      -0.004
  R0019370             JUNCTION     0.000    1.125     0  08:07           0        1.72       0.001
  R0019345             JUNCTION     0.000    0.087     0  08:05           0       0.107      -0.023
  R0019346             JUNCTION     0.008    0.145     0  08:05     0.00704       0.181       0.009
  R0043600             JUNCTION     0.000    0.153     0  08:05           0       0.208      -0.042
  R0019203             JUNCTION     0.015    0.351     0  08:05      0.0154        0.47      -0.000
  R0043594             JUNCTION     0.080    0.117     0  08:05      0.0988       0.142      -0.025
  R0021458             JUNCTION     0.064    0.167     0  08:05      0.0771       0.219      -0.006
  R0019202             JUNCTION     0.022    0.193     0  08:05      0.0233       0.246      -0.156
  R0019373             JUNCTION     0.052    0.052     0  08:05      0.0606      0.0606       0.783
  R0019254             JUNCTION     0.043    0.089     0  08:05      0.0494       0.107       0.043
  R0019716             JUNCTION     0.064    0.676     0  08:06      0.0766       0.963      -0.009
  R0019946             JUNCTION     0.000    0.675     0  08:06           0       0.963      -0.001
  R0013935             JUNCTION     0.041    0.041     0  08:05      0.0471      0.0471       0.057
  R0019939             JUNCTION     0.017    0.053     0  08:05      0.0172      0.0642      -0.037
  R0019944             JUNCTION     0.039    0.828     0  08:06      0.0438        1.23       0.007
  R0043703             JUNCTION     0.046    0.707     0  08:06      0.0536        1.02       0.010
  R0019945             JUNCTION     0.000    0.810     0  08:06           0        1.19      -0.008
  R0039621             JUNCTION     0.000    0.004     0  08:01           0    0.000924       0.958
  R0019838             JUNCTION     0.085    0.085     0  08:05       0.107       0.108      -0.008
  R0039606             JUNCTION     0.000    0.150     0  08:05           0       0.219       0.030
  R0019204             JUNCTION     0.000    0.000     0  00:00           0           0       0.000 ltr
  R0019205             JUNCTION     0.000    0.000     0  00:00           0           0       0.000 ltr
  R0019849             JUNCTION     0.000    0.127     0  08:05           0       0.174       0.012
  R0019371             JUNCTION     0.000    0.000     0  00:00           0           0       0.000 ltr
  R0019718             JUNCTION     0.056    0.391     0  08:05      0.0656       0.536      -0.801
  R0021442             JUNCTION     0.063    0.134     0  08:05      0.0766       0.174       0.044
  R0019247             JUNCTION     0.031    0.158     0  08:05      0.0341       0.208       0.028
  R0019719             JUNCTION     0.032    0.171     0  08:05      0.0359       0.217      -0.007
  R0019767             JUNCTION     0.000    1.120     0  08:07           0        1.72      -0.005
  R0019768             JUNCTION     0.000    1.117     0  08:07           0        1.72       0.008
  R0021453             JUNCTION     0.038    0.038     0  08:05       0.043       0.043      -0.073
  R0019839             JUNCTION     0.085    0.161     0  08:05       0.106       0.213       0.000
  R0019717             JUNCTION     0.103    0.633     0  08:06       0.133       0.889       0.391
  R0019252             JUNCTION     0.050    0.050     0  08:05      0.0579      0.0579      -0.046
  R0019721             JUNCTION     0.015    0.059     0  08:05      0.0151      0.0663       0.018
  R0019942             JUNCTION     0.000    0.079     0  08:05           0        0.11      -0.191
  R0019206             JUNCTION     0.000    0.000     0  00:00           0           0       0.000 ltr
  R0019840             JUNCTION     0.000    0.259     0  08:05           0       0.379       0.002
  R0043702             JUNCTION     0.085    0.335     0  08:05       0.106       0.485      -0.002
  R0019723             JUNCTION     0.036    0.047     0  08:05      0.0405      0.0512      -0.037
  R0019724             JUNCTION     0.011    0.011     0  08:05      0.0107      0.0107      -0.043
  R0021433             JUNCTION     0.052    0.052     0  08:05      0.0602      0.0602      -0.165
  R0021435             JUNCTION     0.034    0.077     0  08:05      0.0372      0.0975       0.006
  R0019769             OUTFALL      0.000    1.118     0  08:07           0        1.72       0.000
  
  
  **********************
  Node Surcharge Summary
  **********************
  
  Surcharging occurs when water rises above the top of the highest conduit.
  ---------------------------------------------------------------------
                                               Max. Height   Min. Depth
                                   Hours       Above Crown    Below Rim
  Node                 Type      Surcharged         Meters       Meters
  ---------------------------------------------------------------------
  R0019466             JUNCTION        0.09          0.311        2.199
  R0019468             JUNCTION        0.08          0.243        2.187
  R0019831             JUNCTION        0.01          0.071        1.289
  R0019825             JUNCTION        0.06          0.336        0.864
  R0019345             JUNCTION        0.02          0.048        1.702
  R0019373             JUNCTION        0.03          0.095        2.405
  R0019254             JUNCTION        0.05          0.241        1.589
  R0013935             JUNCTION        0.01          0.079        1.241
  R0019939             JUNCTION        0.09          0.266        1.354
  R0019849             JUNCTION        0.10          0.261        1.669
  R0021442             JUNCTION        0.11          0.896        0.854
  R0019247             JUNCTION        0.03          0.123        1.737
  R0019252             JUNCTION        0.03          0.227        1.413
  R0019942             JUNCTION        0.07          0.210        1.440
  R0021433             JUNCTION        0.06          0.880        0.970
  R0021435             JUNCTION        0.09          0.981        0.829
  
  
  *********************
  Node Flooding Summary
  *********************
  
  No nodes were flooded.
  
  
  ***********************
  Outfall Loading Summary
  ***********************
  
  -----------------------------------------------------------
                         Flow       Avg       Max       Total
                         Freq      Flow      Flow      Volume
  Outfall Node           Pcnt       CMS       CMS    10^6 ltr
  -----------------------------------------------------------
  R0019769              24.92     0.025     1.118       1.719
  -----------------------------------------------------------
  System                24.92     0.025     1.118       1.719
  
  
  ********************
  Link Flow Summary
  ********************
  
  -----------------------------------------------------------------------------
                                 Maximum  Time of Max   Maximum    Max/    Max/
                                  |Flow|   Occurrence   |Veloc|    Full    Full
  Link                 Type          CMS  days hr:min     m/sec    Flow   Depth
  -----------------------------------------------------------------------------
  H0014431             CONDUIT     0.070     0  08:03      0.98    1.29    1.00
  H0014433             CONDUIT     0.044     0  08:04      0.71    0.56    1.00
  H0014352             CONDUIT     1.124     0  08:06      2.86    0.46    0.60
  H0014373             CONDUIT     1.125     0  08:07      3.78    0.52    0.48
  H0017981             CONDUIT     0.087     0  08:05      1.24    2.46    0.96
  H0017755             CONDUIT     0.151     0  08:05      1.43    1.22    0.80
  H0017791             CONDUIT     0.106     0  08:05      0.62    0.15    0.31
  H0017357             CONDUIT     0.040     0  08:05      0.59    0.64    0.91
  H0018216             CONDUIT     0.087     0  08:05      1.23    1.58    1.00
  H0016792             CONDUIT     0.675     0  08:06      1.90    0.39    0.55
  H0019507             CONDUIT     0.039     0  08:05      0.69    0.54    1.00
  H0019998             CONDUIT     0.827     0  08:06      3.14    0.33    0.44
  H0019576             CONDUIT     0.709     0  08:06      2.26    0.48    0.50
  H0020087             CONDUIT     0.006     0  08:06      0.14    0.03    0.42
  H0020211             CONDUIT     0.684     0  08:06      1.87    1.70    0.56
  H0018982             CONDUIT     0.150     0  08:05      0.80    0.24    0.36
  H0018753             CONDUIT     0.036     0  08:03      0.61    0.51    1.00
  H0018845             CONDUIT     0.000     0  00:00      0.00    0.00    0.00
  H0018863             CONDUIT     0.050     0  08:05      0.71    1.18    1.00
  H0019156             CONDUIT     0.000     0  00:00      0.00    0.00    0.00
  H0018929             CONDUIT     0.353     0  08:06      1.21    0.31    0.47
  H0018440             CONDUIT     0.129     0  08:05      1.83    2.32    1.00
  H0018456             CONDUIT     0.145     0  08:05      1.45    0.88    0.74
  H0018968             CONDUIT     1.117     0  08:07      4.30    0.43    0.43
  H0022036             CONDUIT     0.037     0  08:05      0.48    0.03    0.18
  H0021806             CONDUIT     0.153     0  08:05      1.22    1.35    1.00
  H0022111             CONDUIT     0.078     0  08:05      0.79    0.56    0.51
  H0021440             CONDUIT     0.637     0  08:06      2.27    0.41    0.45
  H0021704             CONDUIT     0.400     0  08:06      1.41    0.76    0.46
  H0020521             CONDUIT     0.047     0  08:05      0.66    0.95    1.00
  H0020755             CONDUIT     0.052     0  08:05      0.61    0.57    0.68
  H0020530             CONDUIT     1.186     0  08:06      2.88    1.01    0.62
  H0020618             CONDUIT     0.809     0  08:06      2.93    0.50    0.45
  H0021163             CONDUIT     0.079     0  08:05      1.15    1.33    1.00
  H0020497             CONDUIT     0.000     0  00:00      0.00    0.00    0.72
  H0024325             CONDUIT     0.158     0  08:05      1.79    0.47    0.46
  H0023585             CONDUIT     0.334     0  08:05      2.45    0.77    0.66
  H0024098             CONDUIT     0.126     0  08:05      1.79    1.48    1.00
  H0024235             CONDUIT     0.167     0  08:05      1.43    0.68    0.58
  H0024282             CONDUIT     0.000     0  00:00      0.00    0.00    0.00
  H0024308             CONDUIT     1.118     0  08:07      4.80    0.33    0.39
  H0024498             CONDUIT     0.102     0  08:05      1.44    1.58    1.00
  H0026990             CONDUIT     0.045     0  08:05      0.72    0.34    0.51
  H0041650             CONDUIT     0.191     0  08:05      0.79    0.22    0.41
  H0041011             CONDUIT     0.079     0  08:05      1.11    0.78    1.00
  H0045103             CONDUIT     0.151     0  08:06      0.74    0.19    0.38
  H0045104             CONDUIT     1.120     0  08:07      4.03    0.40    0.45
  H0045105             CONDUIT     0.011     0  08:05      0.39    0.18    0.42
  H0045106             CONDUIT     0.259     0  08:05      2.36    0.35    0.55
  H0045107             CONDUIT     0.045     0  08:05      0.71    0.74    1.00
  H0045108             CONDUIT     0.074     0  08:05      1.04    1.33    1.00
  
  
  ***************************
  Flow Classification Summary
  ***************************
  
  -------------------------------------------------------------------------------------
                      Adjusted    ---------- Fraction of Time in Flow Class ---------- 
                       /Actual         Up    Down  Sub   Sup   Up    Down  Norm  Inlet 
  Conduit               Length    Dry  Dry   Dry   Crit  Crit  Crit  Crit  Ltd   Ctrl  
  -------------------------------------------------------------------------------------
  H0014431                1.00   0.04  0.71  0.00  0.25  0.00  0.00  0.00  0.95  0.00
  H0014433                1.00   0.04  0.00  0.00  0.96  0.00  0.00  0.00  0.96  0.00
  H0014352                1.00   0.04  0.00  0.00  0.73  0.23  0.00  0.00  0.95  0.00
  H0014373                1.00   0.04  0.00  0.00  0.71  0.24  0.00  0.00  0.70  0.00
  H0017981                1.00   0.04  0.00  0.00  0.00  0.00  0.00  0.96  0.00  0.00
  H0017755                1.00   0.04  0.00  0.00  0.00  0.00  0.00  0.96  0.00  0.00
  H0017791                1.00   0.04  0.00  0.00  0.96  0.00  0.00  0.00  0.95  0.00
  H0017357                1.00   0.04  0.95  0.00  0.00  0.00  0.00  0.00  0.89  0.00
  H0018216                1.00   0.04  0.71  0.00  0.25  0.00  0.00  0.00  0.95  0.00
  H0016792                1.00   0.04  0.70  0.00  0.26  0.00  0.00  0.00  0.95  0.00
  H0019507                1.00   0.04  0.00  0.00  0.96  0.00  0.00  0.00  0.95  0.00
  H0019998                1.00   0.04  0.00  0.00  0.71  0.24  0.00  0.00  0.26  0.00
  H0019576                1.00   0.04  0.00  0.00  0.74  0.22  0.00  0.00  0.25  0.00
  H0020087                1.00   0.04  0.94  0.00  0.01  0.00  0.00  0.00  0.89  0.00
  H0020211                1.00   0.04  0.00  0.00  0.96  0.00  0.00  0.00  0.69  0.00
  H0018982                1.00   0.04  0.00  0.00  0.96  0.00  0.00  0.00  0.72  0.00
  H0018753                1.00   0.04  0.00  0.00  0.96  0.00  0.00  0.00  0.95  0.00
  H0018845                1.00   1.00  0.00  0.00  0.00  0.00  0.00  0.00  0.00  0.00
  H0018863                1.00   0.04  0.00  0.00  0.96  0.00  0.00  0.00  0.95  0.00
  H0019156                1.00   1.00  0.00  0.00  0.00  0.00  0.00  0.00  0.00  0.00
  H0018929                1.00   0.04  0.70  0.00  0.25  0.00  0.00  0.00  0.95  0.00
  H0018440                1.00   0.04  0.00  0.00  0.96  0.00  0.00  0.00  0.95  0.00
  H0018456                1.00   0.04  0.00  0.00  0.96  0.00  0.00  0.00  0.95  0.00
  H0018968                1.00   0.04  0.00  0.00  0.71  0.25  0.00  0.00  0.71  0.00
  H0022036                1.00   0.04  0.00  0.00  0.02  0.02  0.00  0.91  0.02  0.00
  H0021806                1.00   0.04  0.70  0.00  0.25  0.00  0.00  0.00  0.82  0.00
  H0022111                1.00   0.04  0.00  0.00  0.96  0.00  0.00  0.00  0.00  0.00
  H0021440                1.00   0.04  0.00  0.00  0.73  0.22  0.00  0.00  0.01  0.00
  H0021704                1.00   0.04  0.00  0.00  0.00  0.00  0.00  0.96  0.00  0.00
  H0020521                1.00   0.04  0.00  0.00  0.96  0.00  0.00  0.00  0.95  0.00
  H0020755                1.00   0.04  0.71  0.00  0.25  0.00  0.00  0.00  0.95  0.00
  H0020530                1.00   0.04  0.00  0.00  0.73  0.22  0.00  0.00  0.01  0.00
  H0020618                1.00   0.04  0.00  0.00  0.72  0.23  0.00  0.00  0.71  0.00
  H0021163                1.00   0.04  0.00  0.00  0.95  0.01  0.00  0.00  0.72  0.00
  H0020497                1.20   0.04  0.96  0.00  0.00  0.00  0.00  0.00  0.00  0.00
  H0024325                1.00   0.04  0.00  0.00  0.73  0.23  0.00  0.00  0.72  0.00
  H0023585                1.00   0.04  0.00  0.00  0.00  0.00  0.00  0.96  0.00  0.00
  H0024098                1.00   0.04  0.71  0.00  0.25  0.00  0.00  0.00  0.95  0.00
  H0024235                1.00   0.04  0.00  0.00  0.00  0.00  0.00  0.96  0.00  0.00
  H0024282                1.00   1.00  0.00  0.00  0.00  0.00  0.00  0.00  0.00  0.00
  H0024308                1.00   0.05  0.00  0.00  0.70  0.26  0.00  0.00  0.07  0.00
  H0024498                1.00   0.04  0.00  0.00  0.00  0.00  0.00  0.96  0.00  0.00
  H0026990                1.00   0.04  0.00  0.00  0.96  0.00  0.00  0.00  0.95  0.00
  H0041650                1.00   0.75  0.01  0.00  0.24  0.00  0.00  0.00  0.95  0.00
  H0041011                1.00   0.04  0.00  0.00  0.95  0.00  0.00  0.00  0.95  0.00
  H0045103                1.00   0.04  0.00  0.00  0.96  0.00  0.00  0.00  0.85  0.00
  H0045104                1.00   0.04  0.00  0.00  0.71  0.25  0.00  0.00  0.25  0.00
  H0045105                1.00   0.04  0.00  0.00  0.96  0.00  0.00  0.00  0.96  0.00
  H0045106                1.00   0.04  0.00  0.00  0.72  0.23  0.00  0.00  0.95  0.00
  H0045107                1.00   0.04  0.00  0.00  0.96  0.00  0.00  0.00  0.95  0.00
  H0045108                1.00   0.04  0.00  0.00  0.96  0.00  0.00  0.00  0.95  0.00
  
  
  *************************
  Conduit Surcharge Summary
  *************************
  
  ----------------------------------------------------------------------------
                                                           Hours        Hours 
                         --------- Hours Full --------   Above Full   Capacity
  Conduit                Both Ends  Upstream  Dnstream   Normal Flow   Limited
  ----------------------------------------------------------------------------
  H0014431                    0.08      0.09      0.08      0.11         0.08
  H0014433                    0.01      0.01      0.06      0.01         0.01
  H0017981                    0.01      0.02      0.01      0.12         0.01
  H0017755                    0.01      0.01      0.01      0.05         0.01
  H0017357                    0.01      0.01      0.03      0.01         0.01
  H0018216                    0.02      0.05      0.02      0.08         0.04
  H0019507                    0.01      0.01      0.09      0.01         0.01
  H0020211                    0.01      0.01      0.01      0.09         0.01
  H0018753                    0.03      0.03      0.09      0.01         0.01
  H0018863                    0.09      0.09      0.10      0.02         0.02
  H0018440                    0.07      0.11      0.07      0.14         0.10
  H0021806                    0.01      0.03      0.01      0.06         0.01
  H0020521                    0.03      0.03      0.05      0.01         0.01
  H0020530                    0.01      0.01      0.01      0.01         0.01
  H0021163                    0.05      0.06      0.07      0.07         0.04
  H0024098                    0.10      0.10      0.13      0.07         0.06
  H0024498                    0.01      0.08      0.01      0.11         0.06
  H0041011                    0.07      0.07      0.10      0.01         0.01
  H0045107                    0.06      0.06      0.09      0.01         0.01
  H0045108                    0.09      0.09      0.11      0.05         0.05
  

  Analysis begun on:  Fri Mar 22 15:55:53 2024
  Analysis ended on:  Fri Mar 22 15:56:04 2024
  Total elapsed time: 00:00:11