
  EPA STORM WATER MANAGEMENT MODEL - VERSION 5.2 (Build 5.2.4)
  PYSWMM TOOLKIT API - VERSION v1.0 (2023-11-27)
  ------------------------------------------------------------

  Gievenbeck_2022-11-17 01 55 00_hN8 39 
  
  ****************
  Analysis Options
  ****************
  Flow Units ............... CMS
  Process Models:
    Rainfall/Runoff ........ YES
    RDII ................... NO
    Snowmelt ............... NO
    Groundwater ............ NO
    Flow Routing ........... YES
    Ponding Allowed ........ NO
    Water Quality .......... NO
  Infiltration Method ...... HORTON
  Flow Routing Method ...... DYNWAVE
  Surcharge Method ......... SLOT
  Starting Date ............ 01/01/2024 00:00:00
  Ending Date .............. 01/04/2024 04:00:00
  Antecedent Dry Days ...... 14.0
  Report Time Step ......... 00:01:00
  Wet Time Step ............ 00:01:00
  Dry Time Step ............ 00:01:00
  Routing Time Step ........ 1.00 sec
  Variable Time Step ....... YES
  Maximum Trials ........... 8
  Number of Threads ........ 1
  Head Tolerance ........... 0.001500 m
  
  
  **************************        Volume         Depth
  Runoff Quantity Continuity     hectare-m            mm
  **************************     ---------       -------
  Total Precipitation ......         0.085         8.390
  Evaporation Loss .........         0.010         0.988
  Infiltration Loss ........         0.047         4.654
  Surface Runoff ...........         0.028         2.749
  Final Storage ............         0.000         0.000
  Continuity Error (%) .....        -0.007
  
  
  **************************        Volume        Volume
  Flow Routing Continuity        hectare-m      10^6 ltr
  **************************     ---------     ---------
  Dry Weather Inflow .......         0.000         0.000
  Wet Weather Inflow .......         0.028         0.278
  Groundwater Inflow .......         0.000         0.000
  RDII Inflow ..............         0.000         0.000
  External Inflow ..........         0.000         0.000
  External Outflow .........         0.028         0.278
  Flooding Loss ............         0.000         0.000
  Evaporation Loss .........         0.000         0.000
  Exfiltration Loss ........         0.000         0.000
  Initial Stored Volume ....         0.000         0.000
  Final Stored Volume ......         0.000         0.000
  Continuity Error (%) .....         0.000
  
  
  ***************************
  Time-Step Critical Elements
  ***************************
  None
  
  
  ********************************
  Highest Flow Instability Indexes
  ********************************
  All links are stable.
  
  
  *********************************
  Most Frequent Nonconverging Nodes
  *********************************
  Convergence obtained at all time steps.
  
  
  *************************
  Routing Time Step Summary
  *************************
  Minimum Time Step           :     0.50 sec
  Average Time Step           :     1.00 sec
  Maximum Time Step           :     1.00 sec
  % of Time in Steady State   :     0.00
  Average Iterations per Step :     2.00
  % of Steps Not Converging   :     0.00
  Time Step Frequencies       :
      1.000 -  0.871 sec      :   100.00 %
      0.871 -  0.758 sec      :     0.00 %
      0.758 -  0.660 sec      :     0.00 %
      0.660 -  0.574 sec      :     0.00 %
      0.574 -  0.500 sec      :     0.00 %
  
  
  ***************************
  Subcatchment Runoff Summary
  ***************************
  
  ------------------------------------------------------------------------------------------------------------------------------
                            Total      Total      Total      Total     Imperv       Perv      Total       Total     Peak  Runoff
                           Precip      Runon       Evap      Infil     Runoff     Runoff     Runoff      Runoff   Runoff   Coeff
  Subcatchment                 mm         mm         mm         mm         mm         mm         mm    10^6 ltr      CMS
  ------------------------------------------------------------------------------------------------------------------------------
  EZG_368                    8.39       0.00       0.98       4.68       3.21       0.00       2.73        0.01     0.00   0.326
  EZG_392                    8.39       0.00       0.98       4.68       3.22       0.00       2.73        0.01     0.00   0.326
  EZG_352                    8.39       0.00       0.99       4.68       3.21       0.00       2.73        0.02     0.00   0.325
  EZG_372                    8.39       0.00       0.97       4.68       3.23       0.00       2.74        0.00     0.00   0.327
  EZG_416                    8.39       0.00       0.98       4.68       3.22       0.00       2.73        0.01     0.00   0.326
  EZG_388                    8.39       0.00       0.98       4.68       3.21       0.00       2.73        0.01     0.00   0.325
  EZG_394                    8.39       0.00       0.98       4.68       3.22       0.00       2.74        0.01     0.00   0.326
  EZG_400                    8.39       0.00       0.98       4.68       3.22       0.00       2.74        0.01     0.00   0.326
  EZG_390                    8.39       0.00       0.98       4.68       3.22       0.00       2.73        0.01     0.00   0.326
  EZG_350                    8.39       0.00       0.98       4.68       3.21       0.00       2.73        0.01     0.00   0.325
  EZG_370                    8.39       0.00       0.98       4.68       3.21       0.00       2.73        0.01     0.00   0.326
  EZG_398                    8.39       0.00       0.97       4.68       3.23       0.00       2.74        0.00     0.00   0.327
  EZG_382                    8.39       0.00       0.97       4.68       3.23       0.00       2.74        0.00     0.00   0.327
  EZG_374                    8.39       0.00       1.18       3.93       3.85       0.00       3.27        0.01     0.00   0.390
  EZG_412                    8.39       0.00       0.96       4.68       3.24       0.00       2.75        0.00     0.00   0.328
  EZG_344                    8.39       0.00       0.98       4.68       3.22       0.00       2.74        0.01     0.00   0.326
  EZG_376                    8.39       0.00       0.97       4.68       3.22       0.00       2.74        0.01     0.00   0.326
  EZG_356                    8.39       0.00       0.99       4.68       3.21       0.00       2.73        0.02     0.00   0.325
  EZG_386                    8.39       0.00       0.99       4.68       3.20       0.00       2.72        0.02     0.00   0.325
  EZG_380                    8.39       0.00       0.98       4.68       3.21       0.00       2.73        0.01     0.00   0.326
  EZG_378                    8.39       0.00       0.98       4.68       3.22       0.00       2.73        0.01     0.00   0.326
  EZG_414                    8.39       0.00       0.97       4.68       3.23       0.00       2.74        0.00     0.00   0.327
  EZG_402                    8.39       0.00       0.98       4.68       3.22       0.00       2.73        0.01     0.00   0.326
  EZG_358                    8.39       0.00       0.99       4.68       3.21       0.00       2.73        0.02     0.00   0.325
  EZG_364                    8.39       0.00       0.99       4.68       3.21       0.00       2.73        0.02     0.00   0.325
  EZG_410                    8.39       0.00       0.97       4.68       3.22       0.00       2.74        0.01     0.00   0.326
  EZG_366                    8.39       0.00       0.98       4.68       3.22       0.00       2.74        0.01     0.00   0.326
  EZG_18259                  8.39       0.00       0.98       4.68       3.22       0.00       2.74        0.01     0.00   0.326
  EZG_18258                  8.39       0.00       0.96       4.68       3.23       0.00       2.75        0.00     0.00   0.327
  EZG_346                    8.39       0.00       0.96       4.75       3.15       0.00       2.68        0.01     0.00   0.319
  EZG_348                    8.39       0.00       0.96       4.75       3.16       0.00       2.68        0.01     0.00   0.320
  
  
  ******************
  Node Depth Summary
  ******************
  
  ---------------------------------------------------------------------------------
                                 Average  Maximum  Maximum  Time of Max    Reported
                                   Depth    Depth      HGL   Occurrence   Max Depth
  Node                 Type       Meters   Meters   Meters  days hr:min      Meters
  ---------------------------------------------------------------------------------
  R0019466             JUNCTION     0.00     0.05    69.50     0  05:10        0.05
  R0019468             JUNCTION     0.00     0.05    69.36     0  05:11        0.05
  R0019831             JUNCTION     0.00     0.03    69.20     0  05:10        0.03
  R0019825             JUNCTION     0.00     0.05    68.89     0  05:10        0.05
  R0019843             JUNCTION     0.00     0.08    67.71     0  05:14        0.08
  R0019368             JUNCTION     0.01     0.12    66.91     0  05:15        0.12
  R0019369             JUNCTION     0.00     0.09    66.68     0  05:15        0.09
  R0019370             JUNCTION     0.00     0.08    65.98     0  05:16        0.08
  R0019345             JUNCTION     0.00     0.06    69.96     0  05:12        0.06
  R0019346             JUNCTION     0.00     0.05    69.85     0  05:12        0.05
  R0043600             JUNCTION     0.00     0.06    69.73     0  05:13        0.06
  R0019203             JUNCTION     0.00     0.06    69.60     0  05:13        0.06
  R0043594             JUNCTION     0.00     0.05    69.78     0  05:10        0.05
  R0021458             JUNCTION     0.00     0.06    69.71     0  05:11        0.06
  R0019202             JUNCTION     0.00     0.05    69.63     0  05:13        0.05
  R0019373             JUNCTION     0.00     0.03    69.70     0  05:10        0.03
  R0019254             JUNCTION     0.00     0.05    70.09     0  05:10        0.05
  R0019716             JUNCTION     0.00     0.07    69.08     0  05:14        0.07
  R0019946             JUNCTION     0.01     0.14    68.76     0  05:15        0.14
  R0013935             JUNCTION     0.00     0.03    68.86     0  05:10        0.03
  R0019939             JUNCTION     0.00     0.04    68.61     0  05:10        0.04
  R0019944             JUNCTION     0.00     0.07    68.35     0  05:15        0.07
  R0043703             JUNCTION     0.00     0.08    68.68     0  05:15        0.08
  R0019945             JUNCTION     0.00     0.08    68.48     0  05:15        0.08
  R0039621             JUNCTION     0.00     0.00    69.57     0  00:00        0.00
  R0019838             JUNCTION     0.00     0.05    69.51     0  05:10        0.05
  R0039606             JUNCTION     0.00     0.05    69.64     0  05:13        0.05
  R0019204             JUNCTION     0.00     0.00    69.91     0  00:00        0.00
  R0019205             JUNCTION     0.00     0.00    69.62     0  00:00        0.00
  R0019849             JUNCTION     0.00     0.05    68.57     0  05:11        0.05
  R0019371             JUNCTION     0.00     0.00    70.41     0  00:00        0.00
  R0019718             JUNCTION     0.01     0.10    69.52     0  05:15        0.10
  R0021442             JUNCTION     0.00     0.06    70.11     0  05:11        0.06
  R0019247             JUNCTION     0.00     0.06    69.94     0  05:11        0.06
  R0019719             JUNCTION     0.00     0.05    69.73     0  05:12        0.05
  R0019767             JUNCTION     0.00     0.08    64.81     0  05:16        0.08
  R0019768             JUNCTION     0.00     0.07    63.84     0  05:16        0.07
  R0021453             JUNCTION     0.00     0.02    69.97     0  05:10        0.02
  R0019839             JUNCTION     0.00     0.05    69.44     0  05:10        0.05
  R0019717             JUNCTION     0.00     0.08    69.42     0  05:14        0.08
  R0019252             JUNCTION     0.00     0.04    70.23     0  05:10        0.04
  R0019721             JUNCTION     0.00     0.04    69.91     0  05:11        0.04
  R0019942             JUNCTION     0.00     0.04    68.69     0  05:11        0.04
  R0019206             JUNCTION     0.00     0.00    69.07     0  00:00        0.00
  R0019840             JUNCTION     0.00     0.04    69.01     0  05:11        0.04
  R0043702             JUNCTION     0.00     0.06    68.76     0  05:11        0.06
  R0019723             JUNCTION     0.00     0.03    70.11     0  05:10        0.03
  R0019724             JUNCTION     0.00     0.02    70.18     0  05:10        0.02
  R0021433             JUNCTION     0.00     0.03    70.42     0  05:10        0.03
  R0021435             JUNCTION     0.00     0.04    70.22     0  05:10        0.04
  R0019769             OUTFALL      0.00     0.07    63.45     0  05:16        0.07
  
  
  *******************
  Node Inflow Summary
  *******************
  
  -------------------------------------------------------------------------------------------------
                                  Maximum  Maximum                  Lateral       Total        Flow
                                  Lateral    Total  Time of Max      Inflow      Inflow     Balance
                                   Inflow   Inflow   Occurrence      Volume      Volume       Error
  Node                 Type           CMS      CMS  days hr:min    10^6 ltr    10^6 ltr     Percent
  -------------------------------------------------------------------------------------------------
  R0019466             JUNCTION     0.002    0.004     0  05:10      0.0113      0.0211      -0.017
  R0019468             JUNCTION     0.001    0.005     0  05:10     0.00655      0.0276       0.026
  R0019831             JUNCTION     0.002    0.002     0  05:10     0.00885     0.00885      -0.054
  R0019825             JUNCTION     0.002    0.003     0  05:10     0.00888      0.0177       0.001
  R0019843             JUNCTION     0.000    0.043     0  05:14           0       0.278      -0.007
  R0019368             JUNCTION     0.000    0.043     0  05:14           0       0.278       0.001
  R0019369             JUNCTION     0.000    0.043     0  05:15           0       0.278       0.001
  R0019370             JUNCTION     0.000    0.043     0  05:16           0       0.278       0.001
  R0019345             JUNCTION     0.000    0.003     0  05:11           0      0.0173       0.072
  R0019346             JUNCTION     0.000    0.005     0  05:11      0.0011       0.029       0.022
  R0043600             JUNCTION     0.000    0.005     0  05:12           0      0.0336       0.075
  R0019203             JUNCTION     0.000    0.012     0  05:13     0.00243      0.0753      -0.022
  R0043594             JUNCTION     0.003    0.004     0  05:10      0.0161       0.023      -0.065
  R0021458             JUNCTION     0.002    0.006     0  05:10      0.0125      0.0356      -0.020
  R0019202             JUNCTION     0.001    0.006     0  05:12     0.00371      0.0393      -0.008
  R0019373             JUNCTION     0.002    0.002     0  05:10      0.0098      0.0098      -0.028
  R0019254             JUNCTION     0.001    0.003     0  05:10     0.00797      0.0173      -0.038
  R0019716             JUNCTION     0.002    0.024     0  05:14      0.0124       0.155      -0.019
  R0019946             JUNCTION     0.000    0.024     0  05:14           0       0.155       0.021
  R0013935             JUNCTION     0.001    0.001     0  05:10     0.00759     0.00759      -0.054
  R0019939             JUNCTION     0.000    0.002     0  05:10     0.00272      0.0103      -0.006
  R0019944             JUNCTION     0.001    0.031     0  05:15     0.00705       0.199       0.003
  R0043703             JUNCTION     0.001    0.025     0  05:15     0.00865       0.163       0.001
  R0019945             JUNCTION     0.000    0.030     0  05:15           0       0.192       0.002
  R0039621             JUNCTION     0.000    0.000     0  00:00           0           0       0.000 ltr
  R0019838             JUNCTION     0.003    0.003     0  05:10      0.0175      0.0175      -0.001
  R0039606             JUNCTION     0.000    0.006     0  05:12           0      0.0356       0.077
  R0019204             JUNCTION     0.000    0.000     0  00:00           0           0       0.000 ltr
  R0019205             JUNCTION     0.000    0.000     0  00:00           0           0       0.000 ltr
  R0019849             JUNCTION     0.000    0.005     0  05:11           0       0.028      -0.003
  R0019371             JUNCTION     0.000    0.000     0  00:00           0           0       0.000 ltr
  R0019718             JUNCTION     0.002    0.014     0  05:13      0.0106      0.0859       0.023
  R0021442             JUNCTION     0.002    0.005     0  05:10      0.0124      0.0281      -0.012
  R0019247             JUNCTION     0.001    0.006     0  05:10     0.00546      0.0336      -0.057
  R0019719             JUNCTION     0.001    0.006     0  05:11     0.00575      0.0347       0.002
  R0019767             JUNCTION     0.000    0.043     0  05:16           0       0.278       0.001
  R0019768             JUNCTION     0.000    0.043     0  05:16           0       0.278       0.004
  R0021453             JUNCTION     0.001    0.001     0  05:10     0.00692     0.00692       0.076
  R0019839             JUNCTION     0.003    0.006     0  05:10      0.0173      0.0347      -0.014
  R0019717             JUNCTION     0.004    0.022     0  05:14      0.0217       0.142      -0.001
  R0019252             JUNCTION     0.002    0.002     0  05:10     0.00937     0.00937      -0.056
  R0019721             JUNCTION     0.000    0.002     0  05:10     0.00239      0.0106       0.008
  R0019942             JUNCTION     0.000    0.003     0  05:10           0      0.0177       0.025
  R0019206             JUNCTION     0.000    0.000     0  00:00           0           0       0.000 ltr
  R0019840             JUNCTION     0.000    0.010     0  05:11           0      0.0624       0.008
  R0043702             JUNCTION     0.003    0.013     0  05:11      0.0173      0.0796      -0.000
  R0019723             JUNCTION     0.001    0.001     0  05:10      0.0065     0.00818      -0.074
  R0019724             JUNCTION     0.000    0.000     0  05:10     0.00168     0.00168      -0.023
  R0021433             JUNCTION     0.002    0.002     0  05:10     0.00974     0.00974      -0.053
  R0021435             JUNCTION     0.001    0.003     0  05:10     0.00597      0.0157       0.021
  R0019769             OUTFALL      0.000    0.043     0  05:16           0       0.278       0.000
  
  
  **********************
  Node Surcharge Summary
  **********************
  
  No nodes were surcharged.
  
  
  *********************
  Node Flooding Summary
  *********************
  
  No nodes were flooded.
  
  
  ***********************
  Outfall Loading Summary
  ***********************
  
  -----------------------------------------------------------
                         Flow       Avg       Max       Total
                         Freq      Flow      Flow      Volume
  Outfall Node           Pcnt       CMS       CMS    10^6 ltr
  -----------------------------------------------------------
  R0019769              11.55     0.009     0.043       0.278
  -----------------------------------------------------------
  System                11.55     0.009     0.043       0.278
  
  
  ********************
  Link Flow Summary
  ********************
  
  -----------------------------------------------------------------------------
                                 Maximum  Time of Max   Maximum    Max/    Max/
                                  |Flow|   Occurrence   |Veloc|    Full    Full
  Link                 Type          CMS  days hr:min     m/sec    Flow   Depth
  -----------------------------------------------------------------------------
  H0014431             CONDUIT     0.003     0  05:10      0.41    0.06    0.18
  H0014433             CONDUIT     0.001     0  05:10      0.29    0.02    0.13
  H0014352             CONDUIT     0.043     0  05:14      1.09    0.02    0.11
  H0014373             CONDUIT     0.043     0  05:16      1.44    0.02    0.09
  H0017981             CONDUIT     0.003     0  05:12      0.38    0.08    0.16
  H0017755             CONDUIT     0.005     0  05:13      0.54    0.04    0.13
  H0017791             CONDUIT     0.004     0  05:10      0.23    0.01    0.06
  H0017357             CONDUIT     0.000     0  00:00      0.00    0.00    0.05
  H0018216             CONDUIT     0.003     0  05:11      0.35    0.05    0.17
  H0016792             CONDUIT     0.024     0  05:14      0.58    0.01    0.12
  H0019507             CONDUIT     0.001     0  05:10      0.28    0.02    0.12
  H0019998             CONDUIT     0.031     0  05:15      1.18    0.01    0.08
  H0019576             CONDUIT     0.025     0  05:15      0.85    0.02    0.09
  H0020087             CONDUIT     0.000     0  00:00      0.00    0.00    0.05
  H0020211             CONDUIT     0.024     0  05:15      0.55    0.06    0.12
  H0018982             CONDUIT     0.006     0  05:12      0.32    0.01    0.07
  H0018753             CONDUIT     0.002     0  05:10      0.28    0.02    0.14
  H0018845             CONDUIT     0.000     0  00:00      0.00    0.00    0.00
  H0018863             CONDUIT     0.002     0  05:10      0.27    0.04    0.15
  H0019156             CONDUIT     0.000     0  00:00      0.00    0.00    0.00
  H0018929             CONDUIT     0.012     0  05:13      0.40    0.01    0.09
  H0018440             CONDUIT     0.005     0  05:11      0.46    0.08    0.20
  H0018456             CONDUIT     0.005     0  05:12      0.53    0.03    0.13
  H0018968             CONDUIT     0.043     0  05:16      1.64    0.02    0.08
  H0022036             CONDUIT     0.001     0  05:10      0.39    0.00    0.02
  H0021806             CONDUIT     0.005     0  05:12      0.47    0.05    0.15
  H0022111             CONDUIT     0.003     0  05:11      0.29    0.02    0.10
  H0021440             CONDUIT     0.022     0  05:14      0.88    0.01    0.08
  H0021704             CONDUIT     0.014     0  05:15      0.45    0.03    0.09
  H0020521             CONDUIT     0.002     0  05:10      0.26    0.03    0.14
  H0020755             CONDUIT     0.002     0  05:11      0.25    0.02    0.11
  H0020530             CONDUIT     0.043     0  05:15      1.04    0.04    0.12
  H0020618             CONDUIT     0.030     0  05:15      1.11    0.02    0.09
  H0021163             CONDUIT     0.003     0  05:10      0.51    0.05    0.14
  H0020497             CONDUIT     0.000     0  00:00      0.00    0.00    0.14
  H0024325             CONDUIT     0.006     0  05:11      0.68    0.02    0.09
  H0023585             CONDUIT     0.013     0  05:12      0.99    0.03    0.12
  H0024098             CONDUIT     0.005     0  05:11      0.42    0.05    0.22
  H0024235             CONDUIT     0.006     0  05:13      0.54    0.02    0.10
  H0024282             CONDUIT     0.000     0  00:00      0.00    0.00    0.00
  H0024308             CONDUIT     0.043     0  05:16      1.85    0.01    0.08
  H0024498             CONDUIT     0.005     0  05:11      0.55    0.07    0.17
  H0026990             CONDUIT     0.001     0  05:10      0.27    0.01    0.08
  H0041650             CONDUIT     0.006     0  05:13      0.35    0.01    0.07
  H0041011             CONDUIT     0.003     0  05:11      0.50    0.03    0.14
  H0045103             CONDUIT     0.006     0  05:13      0.36    0.01    0.06
  H0045104             CONDUIT     0.043     0  05:16      1.54    0.02    0.09
  H0045105             CONDUIT     0.000     0  05:10      0.13    0.01    0.07
  H0045106             CONDUIT     0.010     0  05:11      0.99    0.01    0.10
  H0045107             CONDUIT     0.002     0  05:10      0.30    0.03    0.13
  H0045108             CONDUIT     0.003     0  05:10      0.33    0.05    0.17
  
  
  ***************************
  Flow Classification Summary
  ***************************
  
  -------------------------------------------------------------------------------------
                      Adjusted    ---------- Fraction of Time in Flow Class ---------- 
                       /Actual         Up    Down  Sub   Sup   Up    Down  Norm  Inlet 
  Conduit               Length    Dry  Dry   Dry   Crit  Crit  Crit  Crit  Ltd   Ctrl  
  -------------------------------------------------------------------------------------
  H0014431                1.00   0.05  0.00  0.00  0.95  0.00  0.00  0.00  0.95  0.00
  H0014433                1.00   0.05  0.00  0.00  0.95  0.00  0.00  0.00  0.95  0.00
  H0014352                1.00   0.05  0.00  0.00  0.87  0.09  0.00  0.00  0.95  0.00
  H0014373                1.00   0.05  0.00  0.00  0.84  0.11  0.00  0.00  0.83  0.00
  H0017981                1.00   0.05  0.00  0.00  0.00  0.00  0.00  0.95  0.00  0.00
  H0017755                1.00   0.05  0.00  0.00  0.00  0.00  0.00  0.95  0.00  0.00
  H0017791                1.00   0.05  0.00  0.00  0.95  0.00  0.00  0.00  0.95  0.00
  H0017357                1.00   0.05  0.95  0.00  0.00  0.00  0.00  0.00  0.00  0.00
  H0018216                1.00   0.05  0.84  0.00  0.12  0.00  0.00  0.00  0.95  0.00
  H0016792                1.00   0.05  0.83  0.00  0.12  0.00  0.00  0.00  0.95  0.00
  H0019507                1.00   0.05  0.00  0.00  0.95  0.00  0.00  0.00  0.95  0.00
  H0019998                1.00   0.05  0.00  0.00  0.85  0.11  0.00  0.00  0.12  0.00
  H0019576                1.00   0.05  0.00  0.00  0.91  0.04  0.00  0.00  0.12  0.00
  H0020087                1.00   0.05  0.95  0.00  0.00  0.00  0.00  0.00  0.00  0.00
  H0020211                1.00   0.05  0.00  0.00  0.95  0.00  0.00  0.00  0.83  0.00
  H0018982                1.00   0.05  0.00  0.00  0.95  0.00  0.00  0.00  0.85  0.00
  H0018753                1.00   0.05  0.00  0.00  0.95  0.00  0.00  0.00  0.95  0.00
  H0018845                1.00   1.00  0.00  0.00  0.00  0.00  0.00  0.00  0.00  0.00
  H0018863                1.00   0.05  0.00  0.00  0.95  0.00  0.00  0.00  0.95  0.00
  H0019156                1.00   1.00  0.00  0.00  0.00  0.00  0.00  0.00  0.00  0.00
  H0018929                1.00   0.05  0.83  0.00  0.12  0.00  0.00  0.00  0.95  0.00
  H0018440                1.00   0.05  0.00  0.00  0.95  0.00  0.00  0.00  0.94  0.00
  H0018456                1.00   0.05  0.00  0.00  0.95  0.00  0.00  0.00  0.95  0.00
  H0018968                1.00   0.05  0.82  0.00  0.01  0.11  0.00  0.00  0.84  0.00
  H0022036                1.00   0.05  0.00  0.00  0.00  0.01  0.00  0.94  0.00  0.00
  H0021806                1.00   0.05  0.84  0.00  0.12  0.00  0.00  0.00  0.91  0.00
  H0022111                1.00   0.05  0.00  0.00  0.95  0.00  0.00  0.00  0.00  0.00
  H0021440                1.00   0.05  0.00  0.00  0.87  0.08  0.00  0.00  0.02  0.00
  H0021704                1.00   0.05  0.00  0.00  0.00  0.00  0.00  0.95  0.00  0.00
  H0020521                1.00   0.05  0.00  0.00  0.95  0.00  0.00  0.00  0.95  0.00
  H0020755                1.00   0.05  0.84  0.00  0.11  0.00  0.00  0.00  0.95  0.00
  H0020530                1.00   0.05  0.00  0.00  0.87  0.08  0.00  0.00  0.00  0.00
  H0020618                1.00   0.05  0.00  0.00  0.85  0.10  0.00  0.00  0.83  0.00
  H0021163                1.00   0.05  0.00  0.00  0.95  0.00  0.00  0.00  0.85  0.00
  H0020497                1.20   0.05  0.95  0.00  0.00  0.00  0.00  0.00  0.00  0.00
  H0024325                1.00   0.05  0.00  0.00  0.87  0.08  0.00  0.00  0.85  0.00
  H0023585                1.00   0.05  0.00  0.00  0.00  0.00  0.00  0.95  0.00  0.00
  H0024098                1.00   0.05  0.84  0.00  0.11  0.00  0.00  0.00  0.95  0.00
  H0024235                1.00   0.05  0.00  0.00  0.00  0.00  0.00  0.95  0.00  0.00
  H0024282                1.00   1.00  0.00  0.00  0.00  0.00  0.00  0.00  0.00  0.00
  H0024308                1.00   0.05  0.00  0.00  0.83  0.13  0.00  0.00  0.04  0.00
  H0024498                1.00   0.05  0.00  0.00  0.00  0.00  0.00  0.95  0.00  0.00
  H0026990                1.00   0.05  0.00  0.00  0.95  0.00  0.00  0.00  0.95  0.00
  H0041650                1.00   0.88  0.01  0.00  0.11  0.00  0.00  0.00  0.95  0.00
  H0041011                1.00   0.05  0.00  0.00  0.95  0.00  0.00  0.00  0.95  0.00
  H0045103                1.00   0.05  0.00  0.00  0.95  0.00  0.00  0.00  0.91  0.00
  H0045104                1.00   0.05  0.00  0.00  0.84  0.11  0.00  0.00  0.12  0.00
  H0045105                1.00   0.05  0.00  0.00  0.95  0.00  0.00  0.00  0.95  0.00
  H0045106                1.00   0.05  0.84  0.00  0.02  0.09  0.00  0.00  0.95  0.00
  H0045107                1.00   0.05  0.00  0.00  0.95  0.00  0.00  0.00  0.95  0.00
  H0045108                1.00   0.05  0.00  0.00  0.95  0.00  0.00  0.00  0.95  0.00
  
  
  *************************
  Conduit Surcharge Summary
  *************************
  
  No conduits were surcharged.
  

  Analysis begun on:  Fri Mar 22 15:55:17 2024
  Analysis ended on:  Fri Mar 22 15:55:27 2024
  Total elapsed time: 00:00:10