
  EPA STORM WATER MANAGEMENT MODEL - VERSION 5.2 (Build 5.2.4)
  PYSWMM TOOLKIT API - VERSION v1.0 (2023-11-27)
  ------------------------------------------------------------

  Gievenbeck_e2_T1D60 
  
  ****************
  Analysis Options
  ****************
  Flow Units ............... CMS
  Process Models:
    Rainfall/Runoff ........ YES
    RDII ................... NO
    Snowmelt ............... NO
    Groundwater ............ NO
    Flow Routing ........... YES
    Ponding Allowed ........ NO
    Water Quality .......... NO
  Infiltration Method ...... HORTON
  Flow Routing Method ...... DYNWAVE
  Surcharge Method ......... SLOT
  Starting Date ............ 01/01/2024 00:00:00
  Ending Date .............. 01/04/2024 04:00:00
  Antecedent Dry Days ...... 14.0
  Report Time Step ......... 00:01:00
  Wet Time Step ............ 00:01:00
  Dry Time Step ............ 00:01:00
  Routing Time Step ........ 1.00 sec
  Variable Time Step ....... YES
  Maximum Trials ........... 8
  Number of Threads ........ 1
  Head Tolerance ........... 0.001500 m
  
  
  **************************        Volume         Depth
  Runoff Quantity Continuity     hectare-m            mm
  **************************     ---------       -------
  Total Precipitation ......         0.149        14.690
  Evaporation Loss .........         0.010         0.954
  Infiltration Loss ........         0.084         8.267
  Surface Runoff ...........         0.056         5.486
  Final Storage ............         0.000         0.000
  Continuity Error (%) .....        -0.111
  
  
  **************************        Volume        Volume
  Flow Routing Continuity        hectare-m      10^6 ltr
  **************************     ---------     ---------
  Dry Weather Inflow .......         0.000         0.000
  Wet Weather Inflow .......         0.056         0.555
  Groundwater Inflow .......         0.000         0.000
  RDII Inflow ..............         0.000         0.000
  External Inflow ..........         0.000         0.000
  External Outflow .........         0.056         0.556
  Flooding Loss ............         0.000         0.000
  Evaporation Loss .........         0.000         0.000
  Exfiltration Loss ........         0.000         0.000
  Initial Stored Volume ....         0.000         0.000
  Final Stored Volume ......         0.000         0.000
  Continuity Error (%) .....        -0.204
  
  
  *************************
  Highest Continuity Errors
  *************************
  Node R0019718 (-2.45%)
  Node R0019717 (1.06%)
  
  
  ***************************
  Time-Step Critical Elements
  ***************************
  None
  
  
  ********************************
  Highest Flow Instability Indexes
  ********************************
  All links are stable.
  
  
  *********************************
  Most Frequent Nonconverging Nodes
  *********************************
  Convergence obtained at all time steps.
  
  
  *************************
  Routing Time Step Summary
  *************************
  Minimum Time Step           :     0.62 sec
  Average Time Step           :     1.00 sec
  Maximum Time Step           :     1.00 sec
  % of Time in Steady State   :     0.00
  Average Iterations per Step :     2.00
  % of Steps Not Converging   :     0.00
  Time Step Frequencies       :
      1.000 -  0.871 sec      :   100.00 %
      0.871 -  0.758 sec      :     0.00 %
      0.758 -  0.660 sec      :     0.00 %
      0.660 -  0.574 sec      :     0.00 %
      0.574 -  0.500 sec      :     0.00 %
  
  
  ***************************
  Subcatchment Runoff Summary
  ***************************
  
  ------------------------------------------------------------------------------------------------------------------------------
                            Total      Total      Total      Total     Imperv       Perv      Total       Total     Peak  Runoff
                           Precip      Runon       Evap      Infil     Runoff     Runoff     Runoff      Runoff   Runoff   Coeff
  Subcatchment                 mm         mm         mm         mm         mm         mm         mm    10^6 ltr      CMS
  ------------------------------------------------------------------------------------------------------------------------------
  EZG_368                   14.69       0.00       0.95       8.31       6.41       0.00       5.45        0.02     0.04   0.371
  EZG_392                   14.69       0.00       0.94       8.31       6.42       0.00       5.45        0.02     0.03   0.371
  EZG_352                   14.69       0.00       0.95       8.31       6.41       0.00       5.44        0.03     0.05   0.371
  EZG_372                   14.69       0.00       0.93       8.31       6.43       0.00       5.47        0.01     0.01   0.372
  EZG_416                   14.69       0.00       0.94       8.31       6.42       0.00       5.46        0.02     0.03   0.371
  EZG_388                   14.69       0.00       0.95       8.31       6.41       0.00       5.45        0.02     0.04   0.371
  EZG_394                   14.69       0.00       0.94       8.31       6.42       0.00       5.46        0.02     0.03   0.371
  EZG_400                   14.69       0.00       0.94       8.31       6.42       0.00       5.46        0.01     0.02   0.372
  EZG_390                   14.69       0.00       0.94       8.31       6.42       0.00       5.45        0.02     0.03   0.371
  EZG_350                   14.69       0.00       0.95       8.31       6.41       0.00       5.45        0.03     0.04   0.371
  EZG_370                   14.69       0.00       0.95       8.31       6.42       0.00       5.45        0.02     0.03   0.371
  EZG_398                   14.69       0.00       0.93       8.31       6.44       0.00       5.47        0.01     0.01   0.372
  EZG_382                   14.69       0.00       0.93       8.31       6.44       0.00       5.47        0.00     0.01   0.373
  EZG_374                   14.69       0.00       1.14       7.03       7.69       0.00       6.54        0.02     0.04   0.445
  EZG_412                   14.69       0.00       0.92       8.31       6.45       0.00       5.48        0.00     0.00   0.373
  EZG_344                   14.69       0.00       0.94       8.31       6.42       0.00       5.46        0.01     0.02   0.372
  EZG_376                   14.69       0.00       0.94       8.31       6.43       0.00       5.46        0.01     0.02   0.372
  EZG_356                   14.69       0.00       0.96       8.31       6.40       0.00       5.44        0.03     0.05   0.371
  EZG_386                   14.69       0.00       0.96       8.30       6.40       0.00       5.44        0.04     0.07   0.370
  EZG_380                   14.69       0.00       0.95       8.31       6.41       0.00       5.45        0.02     0.03   0.371
  EZG_378                   14.69       0.00       0.95       8.31       6.42       0.00       5.45        0.02     0.03   0.371
  EZG_414                   14.69       0.00       0.93       8.31       6.44       0.00       5.47        0.00     0.01   0.373
  EZG_402                   14.69       0.00       0.94       8.31       6.42       0.00       5.45        0.02     0.03   0.371
  EZG_358                   14.69       0.00       0.95       8.31       6.40       0.00       5.44        0.03     0.05   0.371
  EZG_364                   14.69       0.00       0.95       8.31       6.40       0.00       5.44        0.03     0.05   0.371
  EZG_410                   14.69       0.00       0.94       8.31       6.42       0.00       5.46        0.01     0.02   0.372
  EZG_366                   14.69       0.00       0.94       8.31       6.42       0.00       5.46        0.01     0.02   0.372
  EZG_18259                 14.69       0.00       0.94       8.31       6.42       0.00       5.46        0.01     0.02   0.372
  EZG_18258                 14.69       0.00       0.93       8.31       6.44       0.00       5.48        0.00     0.01   0.373
  EZG_346                   14.69       0.00       0.93       8.44       6.29       0.00       5.34        0.02     0.03   0.364
  EZG_348                   14.69       0.00       0.92       8.44       6.30       0.00       5.35        0.01     0.02   0.364
  
  
  ******************
  Node Depth Summary
  ******************
  
  ---------------------------------------------------------------------------------
                                 Average  Maximum  Maximum  Time of Max    Reported
                                   Depth    Depth      HGL   Occurrence   Max Depth
  Node                 Type       Meters   Meters   Meters  days hr:min      Meters
  ---------------------------------------------------------------------------------
  R0019466             JUNCTION     0.00     0.35    69.80     0  02:25        0.32
  R0019468             JUNCTION     0.00     0.32    69.63     0  02:25        0.31
  R0019831             JUNCTION     0.00     0.13    69.30     0  02:25        0.13
  R0019825             JUNCTION     0.00     0.23    69.07     0  02:25        0.23
  R0019843             JUNCTION     0.00     0.33    67.96     0  02:26        0.33
  R0019368             JUNCTION     0.00     0.50    67.29     0  02:26        0.50
  R0019369             JUNCTION     0.00     0.36    66.95     0  02:26        0.36
  R0019370             JUNCTION     0.00     0.31    66.21     0  02:27        0.31
  R0019345             JUNCTION     0.00     0.24    70.14     0  02:25        0.23
  R0019346             JUNCTION     0.00     0.21    70.01     0  02:25        0.21
  R0043600             JUNCTION     0.00     0.24    69.91     0  02:26        0.24
  R0019203             JUNCTION     0.00     0.27    69.81     0  02:26        0.27
  R0043594             JUNCTION     0.00     0.20    69.93     0  02:25        0.20
  R0021458             JUNCTION     0.00     0.24    69.89     0  02:25        0.24
  R0019202             JUNCTION     0.00     0.24    69.82     0  02:26        0.24
  R0019373             JUNCTION     0.00     0.14    69.81     0  02:25        0.14
  R0019254             JUNCTION     0.00     0.24    70.28     0  02:25        0.24
  R0019716             JUNCTION     0.00     0.31    69.32     0  02:25        0.31
  R0019946             JUNCTION     0.00     0.45    69.07     0  02:26        0.45
  R0013935             JUNCTION     0.00     0.12    68.95     0  02:25        0.12
  R0019939             JUNCTION     0.00     0.26    68.83     0  02:26        0.25
  R0019944             JUNCTION     0.00     0.28    68.56     0  02:26        0.28
  R0043703             JUNCTION     0.00     0.34    68.94     0  02:26        0.33
  R0019945             JUNCTION     0.00     0.35    68.75     0  02:26        0.34
  R0039621             JUNCTION     0.00     0.10    69.67     0  02:25        0.10
  R0019838             JUNCTION     0.00     0.21    69.67     0  02:25        0.21
  R0039606             JUNCTION     0.00     0.24    69.83     0  02:25        0.24
  R0019204             JUNCTION     0.00     0.00    69.91     0  00:00        0.00
  R0019205             JUNCTION     0.00     0.00    69.62     0  00:00        0.00
  R0019849             JUNCTION     0.00     0.30    68.82     0  02:26        0.29
  R0019371             JUNCTION     0.00     0.00    70.41     0  00:00        0.00
  R0019718             JUNCTION     0.00     0.35    69.77     0  02:26        0.35
  R0021442             JUNCTION     0.00     0.43    70.48     0  02:25        0.39
  R0019247             JUNCTION     0.00     0.28    70.16     0  02:25        0.27
  R0019719             JUNCTION     0.00     0.23    69.91     0  02:25        0.23
  R0019767             JUNCTION     0.00     0.33    65.06     0  02:27        0.33
  R0019768             JUNCTION     0.00     0.28    64.05     0  02:27        0.28
  R0021453             JUNCTION     0.00     0.08    70.03     0  02:25        0.08
  R0019839             JUNCTION     0.00     0.19    69.58     0  02:25        0.19
  R0019717             JUNCTION     0.00     0.30    69.64     0  02:25        0.30
  R0019252             JUNCTION     0.00     0.17    70.36     0  02:25        0.17
  R0019721             JUNCTION     0.00     0.18    70.05     0  02:25        0.17
  R0019942             JUNCTION     0.00     0.17    68.82     0  02:25        0.17
  R0019206             JUNCTION     0.00     0.00    69.07     0  00:00        0.00
  R0019840             JUNCTION     0.00     0.17    69.14     0  02:25        0.17
  R0043702             JUNCTION     0.00     0.26    68.96     0  02:25        0.25
  R0019723             JUNCTION     0.00     0.12    70.20     0  02:25        0.12
  R0019724             JUNCTION     0.00     0.06    70.22     0  02:25        0.06
  R0021433             JUNCTION     0.00     0.17    70.56     0  02:25        0.17
  R0021435             JUNCTION     0.00     0.38    70.56     0  02:25        0.34
  R0019769             OUTFALL      0.00     0.28    63.66     0  02:27        0.28
  
  
  *******************
  Node Inflow Summary
  *******************
  
  -------------------------------------------------------------------------------------------------
                                  Maximum  Maximum                  Lateral       Total        Flow
                                  Lateral    Total  Time of Max      Inflow      Inflow     Balance
                                   Inflow   Inflow   Occurrence      Volume      Volume       Error
  Node                 Type           CMS      CMS  days hr:min    10^6 ltr    10^6 ltr     Percent
  -------------------------------------------------------------------------------------------------
  R0019466             JUNCTION     0.037    0.068     0  02:25      0.0225      0.0421       0.043
  R0019468             JUNCTION     0.022    0.082     0  02:24      0.0131      0.0551      -0.025
  R0019831             JUNCTION     0.029    0.029     0  02:25      0.0177      0.0177      -0.091
  R0019825             JUNCTION     0.030    0.058     0  02:25      0.0177      0.0354      -0.001
  R0019843             JUNCTION     0.000    0.721     0  02:26           0       0.556      -0.016
  R0019368             JUNCTION     0.000    0.720     0  02:26           0       0.557       0.003
  R0019369             JUNCTION     0.000    0.729     0  02:26           0       0.556      -0.006
  R0019370             JUNCTION     0.000    0.718     0  02:27           0       0.557       0.010
  R0019345             JUNCTION     0.000    0.054     0  02:25           0      0.0346       0.080
  R0019346             JUNCTION     0.004    0.089     0  02:25     0.00219      0.0579       0.048
  R0043600             JUNCTION     0.000    0.091     0  02:25           0      0.0671       0.116
  R0019203             JUNCTION     0.009    0.202     0  02:26     0.00484        0.15      -0.015
  R0043594             JUNCTION     0.051    0.074     0  02:25      0.0322       0.046      -0.115
  R0021458             JUNCTION     0.041    0.108     0  02:25       0.025       0.071      -0.035
  R0019202             JUNCTION     0.013    0.108     0  02:25      0.0074      0.0784      -0.023
  R0019373             JUNCTION     0.032    0.032     0  02:25      0.0196      0.0196      -0.013
  R0019254             JUNCTION     0.027    0.057     0  02:25      0.0159      0.0346      -0.039
  R0019716             JUNCTION     0.040    0.409     0  02:25      0.0248        0.31      -0.035
  R0019946             JUNCTION     0.000    0.409     0  02:26           0        0.31       0.026
  R0013935             JUNCTION     0.025    0.025     0  02:25      0.0151      0.0151      -0.130
  R0019939             JUNCTION     0.010    0.035     0  02:25     0.00542      0.0206       0.008
  R0019944             JUNCTION     0.024    0.517     0  02:26      0.0141       0.397       0.009
  R0043703             JUNCTION     0.029    0.434     0  02:26      0.0173       0.328       0.016
  R0019945             JUNCTION     0.000    0.506     0  02:26           0       0.383      -0.009
  R0039621             JUNCTION     0.000    0.004     0  02:22           0    0.000523       1.505
  R0019838             JUNCTION     0.055    0.055     0  02:25      0.0349      0.0354      -0.025
  R0039606             JUNCTION     0.000    0.101     0  02:25           0      0.0711       0.159
  R0019204             JUNCTION     0.000    0.000     0  00:00           0           0       0.000 ltr
  R0019205             JUNCTION     0.000    0.000     0  00:00           0           0       0.000 ltr
  R0019849             JUNCTION     0.000    0.084     0  02:25           0       0.056       0.058
  R0019371             JUNCTION     0.000    0.000     0  00:00           0           0       0.000 ltr
  R0019718             JUNCTION     0.035    0.224     0  02:26      0.0212       0.171      -2.390
  R0021442             JUNCTION     0.040    0.078     0  02:25      0.0248      0.0562       0.056
  R0019247             JUNCTION     0.019    0.094     0  02:25      0.0109       0.067      -0.113
  R0019719             JUNCTION     0.020    0.104     0  02:25      0.0115      0.0693      -0.031
  R0019767             JUNCTION     0.000    0.717     0  02:27           0       0.556      -0.011
  R0019768             JUNCTION     0.000    0.718     0  02:27           0       0.557       0.022
  R0021453             JUNCTION     0.023    0.023     0  02:25      0.0138      0.0138      -0.014
  R0019839             JUNCTION     0.054    0.103     0  02:25      0.0345      0.0693      -0.032
  R0019717             JUNCTION     0.066    0.375     0  02:25      0.0434       0.288       1.072
  R0019252             JUNCTION     0.031    0.031     0  02:25      0.0187      0.0187      -0.081
  R0019721             JUNCTION     0.008    0.036     0  02:25     0.00476      0.0211       0.034
  R0019942             JUNCTION     0.000    0.056     0  02:25           0      0.0354       0.055
  R0019206             JUNCTION     0.000    0.000     0  00:00           0           0       0.000 ltr
  R0019840             JUNCTION     0.000    0.179     0  02:25           0       0.125       0.026
  R0043702             JUNCTION     0.054    0.226     0  02:25      0.0345       0.159      -0.014
  R0019723             JUNCTION     0.022    0.028     0  02:25       0.013      0.0163      -0.160
  R0019724             JUNCTION     0.006    0.006     0  02:25     0.00335     0.00335      -0.185
  R0021433             JUNCTION     0.032    0.032     0  02:25      0.0194      0.0194      -0.124
  R0021435             JUNCTION     0.020    0.052     0  02:25      0.0119      0.0314      -0.041
  R0019769             OUTFALL      0.000    0.718     0  02:27           0       0.556       0.000
  
  
  **********************
  Node Surcharge Summary
  **********************
  
  Surcharging occurs when water rises above the top of the highest conduit.
  ---------------------------------------------------------------------
                                               Max. Height   Min. Depth
                                   Hours       Above Crown    Below Rim
  Node                 Type      Surcharged         Meters       Meters
  ---------------------------------------------------------------------
  R0019466             JUNCTION        0.02          0.053        2.457
  R0019468             JUNCTION        0.02          0.017        2.413
  R0019849             JUNCTION        0.01          0.002        1.928
  R0021442             JUNCTION        0.06          0.132        1.618
  R0021435             JUNCTION        0.03          0.083        1.727
  
  
  *********************
  Node Flooding Summary
  *********************
  
  No nodes were flooded.
  
  
  ***********************
  Outfall Loading Summary
  ***********************
  
  -----------------------------------------------------------
                         Flow       Avg       Max       Total
                         Freq      Flow      Flow      Volume
  Outfall Node           Pcnt       CMS       CMS    10^6 ltr
  -----------------------------------------------------------
  R0019769               4.46     0.046     0.718       0.556
  -----------------------------------------------------------
  System                 4.46     0.046     0.718       0.556
  
  
  ********************
  Link Flow Summary
  ********************
  
  -----------------------------------------------------------------------------
                                 Maximum  Time of Max   Maximum    Max/    Max/
                                  |Flow|   Occurrence   |Veloc|    Full    Full
  Link                 Type          CMS  days hr:min     m/sec    Flow   Depth
  -----------------------------------------------------------------------------
  H0014431             CONDUIT     0.062     0  02:25      0.88    1.14    1.00
  H0014433             CONDUIT     0.029     0  02:25      0.67    0.37    0.59
  H0014352             CONDUIT     0.720     0  02:26      2.50    0.29    0.47
  H0014373             CONDUIT     0.718     0  02:27      3.34    0.33    0.37
  H0017981             CONDUIT     0.053     0  02:25      1.02    1.51    0.69
  H0017755             CONDUIT     0.090     0  02:26      1.24    0.73    0.56
  H0017791             CONDUIT     0.068     0  02:25      0.57    0.10    0.24
  H0017357             CONDUIT     0.000     0  00:00      0.00    0.00    0.23
  H0018216             CONDUIT     0.054     0  02:25      0.90    0.98    0.79
  H0016792             CONDUIT     0.409     0  02:26      1.63    0.24    0.42
  H0019507             CONDUIT     0.025     0  02:25      0.65    0.35    0.60
  H0019998             CONDUIT     0.516     0  02:26      2.71    0.21    0.34
  H0019576             CONDUIT     0.437     0  02:26      1.98    0.29    0.38
  H0020087             CONDUIT     0.004     0  02:22      0.15    0.02    0.31
  H0020211             CONDUIT     0.418     0  02:26      1.59    1.04    0.43
  H0018982             CONDUIT     0.101     0  02:25      0.75    0.16    0.27
  H0018753             CONDUIT     0.031     0  02:25      0.59    0.45    0.82
  H0018845             CONDUIT     0.000     0  00:00      0.00    0.00    0.00
  H0018863             CONDUIT     0.030     0  02:24      0.56    0.69    0.93
  H0019156             CONDUIT     0.000     0  00:00      0.00    0.00    0.00
  H0018929             CONDUIT     0.203     0  02:26      1.05    0.18    0.34
  H0018440             CONDUIT     0.078     0  02:25      1.10    1.40    1.00
  H0018456             CONDUIT     0.089     0  02:25      1.25    0.54    0.55
  H0018968             CONDUIT     0.718     0  02:27      3.80    0.28    0.34
  H0022036             CONDUIT     0.023     0  02:25      0.49    0.02    0.14
  H0021806             CONDUIT     0.091     0  02:25      1.08    0.81    0.64
  H0022111             CONDUIT     0.050     0  02:25      0.70    0.36    0.40
  H0021440             CONDUIT     0.379     0  02:25      2.00    0.24    0.34
  H0021704             CONDUIT     0.225     0  02:26      1.16    0.43    0.34
  H0020521             CONDUIT     0.030     0  02:25      0.59    0.61    0.68
  H0020755             CONDUIT     0.033     0  02:25      0.55    0.36    0.49
  H0020530             CONDUIT     0.729     0  02:26      2.42    0.62    0.48
  H0020618             CONDUIT     0.505     0  02:26      2.58    0.31    0.35
  H0021163             CONDUIT     0.056     0  02:25      1.14    0.94    0.66
  H0020497             CONDUIT     0.000     0  00:00      0.00    0.00    0.56
  H0024325             CONDUIT     0.101     0  02:25      1.59    0.30    0.36
  H0023585             CONDUIT     0.226     0  02:25      2.24    0.52    0.51
  H0024098             CONDUIT     0.079     0  02:25      1.21    0.92    1.00
  H0024235             CONDUIT     0.103     0  02:25      1.23    0.42    0.44
  H0024282             CONDUIT     0.000     0  00:00      0.00    0.00    0.00
  H0024308             CONDUIT     0.718     0  02:27      4.25    0.21    0.31
  H0024498             CONDUIT     0.078     0  02:25      1.19    1.22    0.89
  H0026990             CONDUIT     0.027     0  02:25      0.66    0.21    0.37
  H0041650             CONDUIT     0.107     0  02:26      0.72    0.13    0.29
  H0041011             CONDUIT     0.055     0  02:25      1.04    0.54    0.78
  H0045103             CONDUIT     0.100     0  02:26      0.73    0.13    0.27
  H0045104             CONDUIT     0.717     0  02:27      3.55    0.25    0.35
  H0045105             CONDUIT     0.006     0  02:25      0.33    0.10    0.31
  H0045106             CONDUIT     0.179     0  02:25      2.25    0.24    0.43
  H0045107             CONDUIT     0.031     0  02:25      0.68    0.52    0.90
  H0045108             CONDUIT     0.044     0  02:26      0.66    0.78    1.00
  
  
  ***************************
  Flow Classification Summary
  ***************************
  
  -------------------------------------------------------------------------------------
                      Adjusted    ---------- Fraction of Time in Flow Class ---------- 
                       /Actual         Up    Down  Sub   Sup   Up    Down  Norm  Inlet 
  Conduit               Length    Dry  Dry   Dry   Crit  Crit  Crit  Crit  Ltd   Ctrl  
  -------------------------------------------------------------------------------------
  H0014431                1.00   0.03  0.00  0.00  0.97  0.00  0.00  0.00  0.97  0.00
  H0014433                1.00   0.03  0.00  0.00  0.97  0.00  0.00  0.00  0.97  0.00
  H0014352                1.00   0.03  0.00  0.00  0.95  0.02  0.00  0.00  0.97  0.00
  H0014373                1.00   0.03  0.00  0.00  0.93  0.04  0.00  0.00  0.92  0.00
  H0017981                1.00   0.03  0.00  0.00  0.00  0.00  0.00  0.97  0.00  0.00
  H0017755                1.00   0.03  0.00  0.00  0.00  0.00  0.00  0.97  0.00  0.00
  H0017791                1.00   0.03  0.00  0.00  0.97  0.00  0.00  0.00  0.97  0.00
  H0017357                1.00   0.03  0.97  0.00  0.00  0.00  0.00  0.00  0.00  0.00
  H0018216                1.00   0.03  0.93  0.00  0.04  0.00  0.00  0.00  0.97  0.00
  H0016792                1.00   0.03  0.92  0.00  0.05  0.00  0.00  0.00  0.97  0.00
  H0019507                1.00   0.03  0.00  0.00  0.97  0.00  0.00  0.00  0.97  0.00
  H0019998                1.00   0.03  0.00  0.00  0.93  0.04  0.00  0.00  0.05  0.00
  H0019576                1.00   0.03  0.00  0.00  0.95  0.02  0.00  0.00  0.05  0.00
  H0020087                1.00   0.03  0.96  0.00  0.01  0.00  0.00  0.00  0.97  0.00
  H0020211                1.00   0.03  0.00  0.00  0.97  0.00  0.00  0.00  0.92  0.00
  H0018982                1.00   0.03  0.00  0.00  0.97  0.00  0.00  0.00  0.94  0.00
  H0018753                1.00   0.03  0.00  0.00  0.97  0.00  0.00  0.00  0.97  0.00
  H0018845                1.00   1.00  0.00  0.00  0.00  0.00  0.00  0.00  0.00  0.00
  H0018863                1.00   0.03  0.00  0.00  0.97  0.00  0.00  0.00  0.97  0.00
  H0019156                1.00   1.00  0.00  0.00  0.00  0.00  0.00  0.00  0.00  0.00
  H0018929                1.00   0.03  0.92  0.00  0.05  0.00  0.00  0.00  0.97  0.00
  H0018440                1.00   0.03  0.00  0.00  0.97  0.00  0.00  0.00  0.97  0.00
  H0018456                1.00   0.03  0.00  0.00  0.97  0.00  0.00  0.00  0.97  0.00
  H0018968                1.00   0.03  0.91  0.00  0.01  0.04  0.00  0.00  0.93  0.00
  H0022036                1.00   0.03  0.00  0.00  0.01  0.00  0.00  0.96  0.01  0.00
  H0021806                1.00   0.03  0.92  0.00  0.05  0.00  0.00  0.00  0.96  0.00
  H0022111                1.00   0.03  0.00  0.00  0.97  0.00  0.00  0.00  0.00  0.00
  H0021440                1.00   0.03  0.00  0.00  0.95  0.02  0.00  0.00  0.02  0.00
  H0021704                1.00   0.03  0.00  0.00  0.00  0.00  0.00  0.97  0.00  0.00
  H0020521                1.00   0.03  0.00  0.00  0.97  0.00  0.00  0.00  0.97  0.00
  H0020755                1.00   0.03  0.93  0.00  0.04  0.00  0.00  0.00  0.97  0.00
  H0020530                1.00   0.03  0.00  0.00  0.95  0.02  0.00  0.00  0.00  0.00
  H0020618                1.00   0.03  0.00  0.00  0.94  0.03  0.00  0.00  0.93  0.00
  H0021163                1.00   0.03  0.00  0.00  0.97  0.00  0.00  0.00  0.94  0.00
  H0020497                1.20   0.03  0.97  0.00  0.00  0.00  0.00  0.00  0.00  0.00
  H0024325                1.00   0.03  0.00  0.00  0.95  0.02  0.00  0.00  0.94  0.00
  H0023585                1.00   0.03  0.00  0.00  0.00  0.00  0.00  0.97  0.00  0.00
  H0024098                1.00   0.03  0.93  0.00  0.04  0.00  0.00  0.00  0.97  0.00
  H0024235                1.00   0.03  0.00  0.00  0.00  0.00  0.00  0.97  0.00  0.00
  H0024282                1.00   1.00  0.00  0.00  0.00  0.00  0.00  0.00  0.00  0.00
  H0024308                1.00   0.03  0.00  0.00  0.92  0.05  0.00  0.00  0.01  0.00
  H0024498                1.00   0.03  0.00  0.00  0.00  0.00  0.00  0.97  0.00  0.00
  H0026990                1.00   0.03  0.00  0.00  0.97  0.00  0.00  0.00  0.97  0.00
  H0041650                1.00   0.95  0.01  0.00  0.04  0.00  0.00  0.00  0.97  0.00
  H0041011                1.00   0.03  0.00  0.00  0.97  0.00  0.00  0.00  0.97  0.00
  H0045103                1.00   0.03  0.00  0.00  0.97  0.00  0.00  0.00  0.95  0.00
  H0045104                1.00   0.03  0.00  0.00  0.93  0.04  0.00  0.00  0.05  0.00
  H0045105                1.00   0.03  0.00  0.00  0.97  0.00  0.00  0.00  0.97  0.00
  H0045106                1.00   0.03  0.93  0.00  0.02  0.03  0.00  0.00  0.97  0.00
  H0045107                1.00   0.03  0.00  0.00  0.97  0.00  0.00  0.00  0.97  0.00
  H0045108                1.00   0.03  0.00  0.00  0.97  0.00  0.00  0.00  0.97  0.00
  
  
  *************************
  Conduit Surcharge Summary
  *************************
  
  ----------------------------------------------------------------------------
                                                           Hours        Hours 
                         --------- Hours Full --------   Above Full   Capacity
  Conduit                Both Ends  Upstream  Dnstream   Normal Flow   Limited
  ----------------------------------------------------------------------------
  H0014431                    0.02      0.02      0.02      0.05         0.02
  H0017981                    0.01      0.01      0.01      0.07         0.01
  H0020211                    0.01      0.01      0.01      0.02         0.01
  H0018753                    0.01      0.01      0.02      0.01         0.01
  H0018863                    0.01      0.01      0.01      0.01         0.01
  H0018440                    0.01      0.06      0.01      0.09         0.04
  H0024098                    0.01      0.01      0.07      0.01         0.01
  H0024498                    0.01      0.02      0.01      0.06         0.01
  H0041011                    0.01      0.01      0.01      0.01         0.01
  H0045107                    0.01      0.01      0.03      0.01         0.01
  H0045108                    0.03      0.03      0.06      0.01         0.01
  

  Analysis begun on:  Fri Mar 22 15:55:59 2024
  Analysis ended on:  Fri Mar 22 15:56:11 2024
  Total elapsed time: 00:00:12