
  EPA STORM WATER MANAGEMENT MODEL - VERSION 5.2 (Build 5.2.4)
  PYSWMM TOOLKIT API - VERSION v1.0 (2023-11-27)
  ------------------------------------------------------------

  Gievenbeck_e2_T3D720 
  
  ****************
  Analysis Options
  ****************
  Flow Units ............... CMS
  Process Models:
    Rainfall/Runoff ........ YES
    RDII ................... NO
    Snowmelt ............... NO
    Groundwater ............ NO
    Flow Routing ........... YES
    Ponding Allowed ........ NO
    Water Quality .......... NO
  Infiltration Method ...... HORTON
  Flow Routing Method ...... DYNWAVE
  Surcharge Method ......... SLOT
  Starting Date ............ 01/01/2024 00:00:00
  Ending Date .............. 01/04/2024 04:00:00
  Antecedent Dry Days ...... 14.0
  Report Time Step ......... 00:01:00
  Wet Time Step ............ 00:01:00
  Dry Time Step ............ 00:01:00
  Routing Time Step ........ 1.00 sec
  Variable Time Step ....... YES
  Maximum Trials ........... 8
  Number of Threads ........ 1
  Head Tolerance ........... 0.001500 m
  
  
  **************************        Volume         Depth
  Runoff Quantity Continuity     hectare-m            mm
  **************************     ---------       -------
  Total Precipitation ......         0.397        39.190
  Evaporation Loss .........         0.010         0.947
  Infiltration Loss ........         0.208        20.583
  Surface Runoff ...........         0.179        17.692
  Final Storage ............         0.000         0.000
  Continuity Error (%) .....        -0.082
  
  
  **************************        Volume        Volume
  Flow Routing Continuity        hectare-m      10^6 ltr
  **************************     ---------     ---------
  Dry Weather Inflow .......         0.000         0.000
  Wet Weather Inflow .......         0.179         1.791
  Groundwater Inflow .......         0.000         0.000
  RDII Inflow ..............         0.000         0.000
  External Inflow ..........         0.000         0.000
  External Outflow .........         0.179         1.791
  Flooding Loss ............         0.000         0.000
  Evaporation Loss .........         0.000         0.000
  Exfiltration Loss ........         0.000         0.000
  Initial Stored Volume ....         0.000         0.000
  Final Stored Volume ......         0.000         0.000
  Continuity Error (%) .....        -0.006
  
  
  *************************
  Highest Continuity Errors
  *************************
  Node R0019373 (1.34%)
  
  
  ***************************
  Time-Step Critical Elements
  ***************************
  None
  
  
  ********************************
  Highest Flow Instability Indexes
  ********************************
  All links are stable.
  
  
  *********************************
  Most Frequent Nonconverging Nodes
  *********************************
  Convergence obtained at all time steps.
  
  
  *************************
  Routing Time Step Summary
  *************************
  Minimum Time Step           :     0.64 sec
  Average Time Step           :     1.00 sec
  Maximum Time Step           :     1.00 sec
  % of Time in Steady State   :     0.00
  Average Iterations per Step :     2.00
  % of Steps Not Converging   :     0.00
  Time Step Frequencies       :
      1.000 -  0.871 sec      :   100.00 %
      0.871 -  0.758 sec      :     0.00 %
      0.758 -  0.660 sec      :     0.00 %
      0.660 -  0.574 sec      :     0.00 %
      0.574 -  0.500 sec      :     0.00 %
  
  
  ***************************
  Subcatchment Runoff Summary
  ***************************
  
  ------------------------------------------------------------------------------------------------------------------------------
                            Total      Total      Total      Total     Imperv       Perv      Total       Total     Peak  Runoff
                           Precip      Runon       Evap      Infil     Runoff     Runoff     Runoff      Runoff   Runoff   Coeff
  Subcatchment                 mm         mm         mm         mm         mm         mm         mm    10^6 ltr      CMS
  ------------------------------------------------------------------------------------------------------------------------------
  EZG_368                   39.19       0.00       0.94      20.72      18.68       1.68      17.55        0.07     0.07   0.448
  EZG_392                   39.19       0.00       0.94      20.63      18.68       1.78      17.66        0.06     0.06   0.451
  EZG_352                   39.19       0.00       0.95      20.87      18.67       1.54      17.41        0.10     0.09   0.444
  EZG_372                   39.19       0.00       0.93      20.29      18.69       2.13      18.02        0.02     0.03   0.460
  EZG_416                   39.19       0.00       0.94      20.59      18.68       1.82      17.70        0.05     0.05   0.452
  EZG_388                   39.19       0.00       0.94      20.76      18.67       1.64      17.51        0.08     0.08   0.447
  EZG_394                   39.19       0.00       0.94      20.57      18.68       1.84      17.72        0.05     0.05   0.452
  EZG_400                   39.19       0.00       0.94      20.54      18.68       1.87      17.75        0.05     0.05   0.453
  EZG_390                   39.19       0.00       0.94      20.62      18.68       1.79      17.67        0.06     0.05   0.451
  EZG_350                   39.19       0.00       0.94      20.77      18.67       1.64      17.51        0.08     0.08   0.447
  EZG_370                   39.19       0.00       0.94      20.67      18.68       1.74      17.61        0.06     0.06   0.449
  EZG_398                   39.19       0.00       0.93      20.17      18.70       2.25      18.14        0.02     0.02   0.463
  EZG_382                   39.19       0.00       0.93      20.13      18.70       2.29      18.19        0.02     0.02   0.464
  EZG_374                   39.19       0.00       1.13      17.11      22.40       1.93      20.98        0.08     0.07   0.535
  EZG_412                   39.19       0.00       0.92      19.85      18.71       2.58      18.49        0.01     0.01   0.472
  EZG_344                   39.19       0.00       0.94      20.53      18.68       1.88      17.76        0.04     0.05   0.453
  EZG_376                   39.19       0.00       0.93      20.44      18.69       1.97      17.86        0.04     0.04   0.456
  EZG_356                   39.19       0.00       0.95      20.90      18.67       1.51      17.37        0.11     0.10   0.443
  EZG_386                   39.19       0.00       0.95      20.98      18.66       1.42      17.28        0.14     0.12   0.441
  EZG_380                   39.19       0.00       0.94      20.70      18.68       1.70      17.58        0.07     0.07   0.449
  EZG_378                   39.19       0.00       0.94      20.65      18.68       1.76      17.63        0.06     0.06   0.450
  EZG_414                   39.19       0.00       0.93      20.12      18.70       2.30      18.19        0.02     0.02   0.464
  EZG_402                   39.19       0.00       0.94      20.63      18.68       1.78      17.66        0.06     0.06   0.451
  EZG_358                   39.19       0.00       0.95      20.89      18.67       1.51      17.38        0.11     0.10   0.443
  EZG_364                   39.19       0.00       0.95      20.89      18.67       1.51      17.38        0.11     0.10   0.443
  EZG_410                   39.19       0.00       0.93      20.46      18.69       1.95      17.84        0.04     0.04   0.455
  EZG_366                   39.19       0.00       0.94      20.51      18.68       1.90      17.78        0.04     0.04   0.454
  EZG_18259                 39.19       0.00       0.94      20.51      18.69       1.90      17.79        0.04     0.04   0.454
  EZG_18258                 39.19       0.00       0.92      20.00      18.71       2.43      18.33        0.01     0.01   0.468
  EZG_346                   39.19       0.00       0.92      21.03      18.30       1.71      17.27        0.06     0.06   0.441
  EZG_348                   39.19       0.00       0.92      20.83      18.31       1.91      17.48        0.04     0.04   0.446
  
  
  ******************
  Node Depth Summary
  ******************
  
  ---------------------------------------------------------------------------------
                                 Average  Maximum  Maximum  Time of Max    Reported
                                   Depth    Depth      HGL   Occurrence   Max Depth
  Node                 Type       Meters   Meters   Meters  days hr:min      Meters
  ---------------------------------------------------------------------------------
  R0019466             JUNCTION     0.01     0.74    70.19     0  06:05        0.73
  R0019468             JUNCTION     0.01     0.65    69.96     0  06:05        0.65
  R0019831             JUNCTION     0.00     0.82    69.99     0  06:05        0.75
  R0019825             JUNCTION     0.01     1.02    69.86     0  06:05        0.94
  R0019843             JUNCTION     0.01     0.49    68.12     0  06:06        0.49
  R0019368             JUNCTION     0.02     0.72    67.51     0  06:06        0.71
  R0019369             JUNCTION     0.01     0.53    67.12     0  06:06        0.51
  R0019370             JUNCTION     0.01     0.44    66.34     0  06:06        0.44
  R0019345             JUNCTION     0.01     0.43    70.33     0  06:05        0.42
  R0019346             JUNCTION     0.01     0.34    70.14     0  06:05        0.33
  R0043600             JUNCTION     0.01     0.41    70.08     0  06:05        0.40
  R0019203             JUNCTION     0.01     0.43    69.97     0  06:05        0.43
  R0043594             JUNCTION     0.01     0.29    70.02     0  06:05        0.28
  R0021458             JUNCTION     0.01     0.36    70.01     0  06:05        0.36
  R0019202             JUNCTION     0.01     0.40    69.98     0  06:05        0.40
  R0019373             JUNCTION     0.00     0.51    70.18     0  06:05        0.51
  R0019254             JUNCTION     0.01     0.78    70.82     0  06:05        0.76
  R0019716             JUNCTION     0.01     0.47    69.48     0  06:06        0.47
  R0019946             JUNCTION     0.02     0.65    69.27     0  06:06        0.65
  R0013935             JUNCTION     0.00     0.60    69.43     0  06:05        0.56
  R0019939             JUNCTION     0.01     0.78    69.35     0  06:05        0.72
  R0019944             JUNCTION     0.01     0.40    68.68     0  06:06        0.40
  R0043703             JUNCTION     0.01     0.50    69.10     0  06:06        0.50
  R0019945             JUNCTION     0.01     0.51    68.91     0  06:06        0.51
  R0039621             JUNCTION     0.00     0.19    69.76     0  06:05        0.18
  R0019838             JUNCTION     0.01     0.29    69.75     0  06:05        0.29
  R0039606             JUNCTION     0.01     0.39    69.98     0  06:05        0.39
  R0019204             JUNCTION     0.00     0.00    69.91     0  00:00        0.00
  R0019205             JUNCTION     0.00     0.00    69.62     0  00:00        0.00
  R0019849             JUNCTION     0.01     0.74    69.26     0  06:05        0.71
  R0019371             JUNCTION     0.00     0.00    70.41     0  00:00        0.00
  R0019718             JUNCTION     0.01     0.52    69.94     0  06:05        0.51
  R0021442             JUNCTION     0.01     1.69    71.74     0  06:05        1.60
  R0019247             JUNCTION     0.01     0.72    70.60     0  06:05        0.68
  R0019719             JUNCTION     0.01     0.34    70.02     0  06:05        0.33
  R0019767             JUNCTION     0.01     0.47    65.20     0  06:06        0.47
  R0019768             JUNCTION     0.01     0.40    64.17     0  06:06        0.39
  R0021453             JUNCTION     0.00     0.11    70.06     0  06:05        0.11
  R0019839             JUNCTION     0.01     0.27    69.66     0  06:05        0.27
  R0019717             JUNCTION     0.01     0.46    69.80     0  06:05        0.45
  R0019252             JUNCTION     0.00     0.81    71.00     0  06:05        0.79
  R0019721             JUNCTION     0.00     0.30    70.17     0  06:05        0.30
  R0019942             JUNCTION     0.00     0.73    69.38     0  06:05        0.68
  R0019206             JUNCTION     0.00     0.00    69.07     0  00:00        0.00
  R0019840             JUNCTION     0.00     0.24    69.21     0  06:05        0.24
  R0043702             JUNCTION     0.01     0.37    69.07     0  06:05        0.36
  R0019723             JUNCTION     0.00     0.18    70.26     0  06:05        0.18
  R0019724             JUNCTION     0.00     0.11    70.27     0  06:05        0.10
  R0021433             JUNCTION     0.01     1.76    72.15     0  06:05        1.64
  R0021435             JUNCTION     0.01     1.84    72.02     0  06:05        1.71
  R0019769             OUTFALL      0.01     0.39    63.77     0  06:07        0.39
  
  
  *******************
  Node Inflow Summary
  *******************
  
  -------------------------------------------------------------------------------------------------
                                  Maximum  Maximum                  Lateral       Total        Flow
                                  Lateral    Total  Time of Max      Inflow      Inflow     Balance
                                   Inflow   Inflow   Occurrence      Volume      Volume       Error
  Node                 Type           CMS      CMS  days hr:min    10^6 ltr    10^6 ltr     Percent
  -------------------------------------------------------------------------------------------------
  R0019466             JUNCTION     0.069    0.085     0  06:02      0.0725       0.127       0.094
  R0019468             JUNCTION     0.043    0.112     0  06:05      0.0426        0.17      -0.030
  R0019831             JUNCTION     0.056    0.056     0  06:05      0.0572      0.0572       0.094
  R0019825             JUNCTION     0.056    0.104     0  06:05      0.0574       0.114       0.160
  R0019843             JUNCTION     0.000    1.359     0  06:06           0        1.79      -0.001
  R0019368             JUNCTION     0.000    1.364     0  06:06           0        1.79       0.010
  R0019369             JUNCTION     0.000    1.414     0  06:06           0        1.79      -0.009
  R0019370             JUNCTION     0.000    1.375     0  06:06           0        1.79       0.001
  R0019345             JUNCTION     0.000    0.104     0  06:05           0       0.112       0.031
  R0019346             JUNCTION     0.009    0.171     0  06:05     0.00738       0.189      -0.019
  R0043600             JUNCTION     0.000    0.182     0  06:05           0       0.217      -0.072
  R0019203             JUNCTION     0.018    0.422     0  06:05      0.0161       0.494       0.001
  R0043594             JUNCTION     0.094    0.138     0  06:05       0.103       0.148      -0.019
  R0021458             JUNCTION     0.076    0.197     0  06:05      0.0804       0.228      -0.004
  R0019202             JUNCTION     0.026    0.230     0  06:05      0.0244        0.26      -0.276
  R0019373             JUNCTION     0.061    0.061     0  06:05      0.0632      0.0634       1.356
  R0019254             JUNCTION     0.051    0.105     0  06:05      0.0516       0.112       0.050
  R0019716             JUNCTION     0.075    0.822     0  06:05      0.0798        1.01      -0.011
  R0019946             JUNCTION     0.000    0.826     0  06:06           0        1.01       0.000
  R0013935             JUNCTION     0.049    0.049     0  06:05      0.0492      0.0492       0.056
  R0019939             JUNCTION     0.020    0.063     0  06:04       0.018      0.0671      -0.038
  R0019944             JUNCTION     0.046    1.021     0  06:06      0.0457        1.29       0.008
  R0043703             JUNCTION     0.055    0.868     0  06:06      0.0559        1.06       0.011
  R0019945             JUNCTION     0.000    0.998     0  06:06           0        1.24      -0.010
  R0039621             JUNCTION     0.000    0.005     0  06:01           0     0.00112       0.785
  R0019838             JUNCTION     0.101    0.101     0  06:05       0.111       0.112      -0.008
  R0039606             JUNCTION     0.000    0.165     0  06:05           0       0.228       0.031
  R0019204             JUNCTION     0.000    0.000     0  00:00           0           0       0.000 ltr
  R0019205             JUNCTION     0.000    0.000     0  00:00           0           0       0.000 ltr
  R0019849             JUNCTION     0.000    0.157     0  06:05           0       0.182       0.010
  R0019371             JUNCTION     0.000    0.000     0  00:00           0           0       0.000 ltr
  R0019718             JUNCTION     0.066    0.471     0  06:05      0.0684       0.562      -0.789
  R0021442             JUNCTION     0.075    0.153     0  06:05      0.0795       0.181       0.047
  R0019247             JUNCTION     0.037    0.182     0  06:05      0.0356       0.217       0.051
  R0019719             JUNCTION     0.038    0.199     0  06:05      0.0375       0.226       0.348
  R0019767             JUNCTION     0.000    1.364     0  06:06           0        1.79      -0.005
  R0019768             JUNCTION     0.000    1.359     0  06:07           0        1.79       0.008
  R0021453             JUNCTION     0.045    0.045     0  06:05      0.0449      0.0449      -0.090
  R0019839             JUNCTION     0.100    0.190     0  06:05        0.11       0.221       0.001
  R0019717             JUNCTION     0.121    0.767     0  06:05       0.138        0.93       0.365
  R0019252             JUNCTION     0.059    0.059     0  06:05      0.0604      0.0604      -0.046
  R0019721             JUNCTION     0.018    0.070     0  06:05      0.0158      0.0693       0.011
  R0019942             JUNCTION     0.000    0.099     0  06:05           0       0.114      -0.215
  R0019206             JUNCTION     0.000    0.000     0  00:00           0           0       0.000 ltr
  R0019840             JUNCTION     0.000    0.297     0  06:05           0       0.391       0.001
  R0043702             JUNCTION     0.100    0.387     0  06:05        0.11       0.501      -0.000
  R0019723             JUNCTION     0.043    0.055     0  06:05      0.0423      0.0535      -0.032
  R0019724             JUNCTION     0.013    0.013     0  06:05      0.0112      0.0112      -0.044
  R0021433             JUNCTION     0.061    0.061     0  06:05      0.0628      0.0628      -0.146
  R0021435             JUNCTION     0.040    0.089     0  06:05      0.0389       0.102      -0.019
  R0019769             OUTFALL      0.000    1.359     0  06:07           0        1.79       0.000
  
  
  **********************
  Node Surcharge Summary
  **********************
  
  Surcharging occurs when water rises above the top of the highest conduit.
  ---------------------------------------------------------------------
                                               Max. Height   Min. Depth
                                   Hours       Above Crown    Below Rim
  Node                 Type      Surcharged         Meters       Meters
  ---------------------------------------------------------------------
  R0019466             JUNCTION        0.11          0.439        2.071
  R0019468             JUNCTION        0.10          0.355        2.075
  R0019831             JUNCTION        0.04          0.516        0.844
  R0019825             JUNCTION        0.08          0.719        0.481
  R0019345             JUNCTION        0.04          0.125        1.625
  R0043600             JUNCTION        0.01          0.009        2.571
  R0019373             JUNCTION        0.04          0.213        2.287
  R0019254             JUNCTION        0.07          0.475        1.355
  R0013935             JUNCTION        0.05          0.299        1.021
  R0019939             JUNCTION        0.11          0.476        1.144
  R0019849             JUNCTION        0.12          0.441        1.489
  R0021442             JUNCTION        0.13          1.386        0.364
  R0019247             JUNCTION        0.06          0.316        1.544
  R0019252             JUNCTION        0.05          0.515        1.125
  R0019942             JUNCTION        0.09          0.428        1.222
  R0021433             JUNCTION        0.08          1.463        0.387
  R0021435             JUNCTION        0.11          1.536        0.274
  
  
  *********************
  Node Flooding Summary
  *********************
  
  No nodes were flooded.
  
  
  ***********************
  Outfall Loading Summary
  ***********************
  
  -----------------------------------------------------------
                         Flow       Avg       Max       Total
                         Freq      Flow      Flow      Volume
  Outfall Node           Pcnt       CMS       CMS    10^6 ltr
  -----------------------------------------------------------
  R0019769              17.66     0.037     1.359       1.791
  -----------------------------------------------------------
  System                17.66     0.037     1.359       1.791
  
  
  ********************
  Link Flow Summary
  ********************
  
  -----------------------------------------------------------------------------
                                 Maximum  Time of Max   Maximum    Max/    Max/
                                  |Flow|   Occurrence   |Veloc|    Full    Full
  Link                 Type          CMS  days hr:min     m/sec    Flow   Depth
  -----------------------------------------------------------------------------
  H0014431             CONDUIT     0.072     0  06:02      1.02    1.33    1.00
  H0014433             CONDUIT     0.050     0  06:05      0.73    0.64    1.00
  H0014352             CONDUIT     1.364     0  06:06      3.05    0.56    0.67
  H0014373             CONDUIT     1.375     0  06:06      3.97    0.63    0.54
  H0017981             CONDUIT     0.104     0  06:05      1.47    2.94    1.00
  H0017755             CONDUIT     0.182     0  06:05      1.48    1.47    0.95
  H0017791             CONDUIT     0.123     0  06:05      0.64    0.18    0.35
  H0017357             CONDUIT     0.059     0  06:05      0.83    0.94    1.00
  H0018216             CONDUIT     0.104     0  06:05      1.47    1.89    1.00
  H0016792             CONDUIT     0.826     0  06:06      1.99    0.47    0.62
  H0019507             CONDUIT     0.045     0  06:05      0.71    0.62    1.00
  H0019998             CONDUIT     1.025     0  06:06      3.30    0.41    0.50
  H0019576             CONDUIT     0.873     0  06:06      2.38    0.59    0.56
  H0020087             CONDUIT     0.007     0  06:06      0.15    0.03    0.47
  H0020211             CONDUIT     0.838     0  06:06      1.98    2.09    0.64
  H0018982             CONDUIT     0.165     0  06:05      0.81    0.27    0.42
  H0018753             CONDUIT     0.037     0  06:02      0.62    0.53    1.00
  H0018845             CONDUIT     0.000     0  00:00      0.00    0.00    0.00
  H0018863             CONDUIT     0.060     0  06:05      0.85    1.42    1.00
  H0019156             CONDUIT     0.000     0  00:00      0.00    0.00    0.00
  H0018929             CONDUIT     0.423     0  06:05      1.27    0.37    0.53
  H0018440             CONDUIT     0.150     0  06:05      2.13    2.69    1.00
  H0018456             CONDUIT     0.169     0  06:05      1.49    1.03    0.85
  H0018968             CONDUIT     1.359     0  06:07      4.53    0.52    0.48
  H0022036             CONDUIT     0.044     0  06:05      0.49    0.03    0.20
  H0021806             CONDUIT     0.182     0  06:05      1.45    1.61    1.00
  H0022111             CONDUIT     0.092     0  06:05      0.83    0.66    0.56
  H0021440             CONDUIT     0.773     0  06:06      2.37    0.50    0.51
  H0021704             CONDUIT     0.479     0  06:06      1.49    0.91    0.52
  H0020521             CONDUIT     0.056     0  06:05      0.79    1.13    1.00
  H0020755             CONDUIT     0.062     0  06:06      0.64    0.69    0.80
  H0020530             CONDUIT     1.414     0  06:06      3.05    1.21    0.68
  H0020618             CONDUIT     0.997     0  06:06      3.08    0.62    0.51
  H0021163             CONDUIT     0.099     0  06:05      1.40    1.65    1.00
  H0020497             CONDUIT     0.000     0  00:00      0.00    0.00    0.82
  H0024325             CONDUIT     0.186     0  06:05      1.86    0.56    0.51
  H0023585             CONDUIT     0.386     0  06:05      2.52    0.89    0.73
  H0024098             CONDUIT     0.156     0  06:05      2.20    1.82    1.00
  H0024235             CONDUIT     0.200     0  06:05      1.47    0.82    0.65
  H0024282             CONDUIT     0.000     0  00:00      0.00    0.00    0.00
  H0024308             CONDUIT     1.359     0  06:07      5.06    0.40    0.44
  H0024498             CONDUIT     0.112     0  06:05      1.58    1.73    1.00
  H0026990             CONDUIT     0.053     0  06:05      0.74    0.40    0.59
  H0041650             CONDUIT     0.228     0  06:05      0.81    0.27    0.46
  H0041011             CONDUIT     0.098     0  06:05      1.38    0.97    1.00
  H0045103             CONDUIT     0.178     0  06:06      0.77    0.22    0.44
  H0045104             CONDUIT     1.364     0  06:06      4.24    0.48    0.50
  H0045105             CONDUIT     0.013     0  06:05      0.39    0.22    0.47
  H0045106             CONDUIT     0.298     0  06:05      2.37    0.40    0.61
  H0045107             CONDUIT     0.052     0  06:05      0.74    0.85    1.00
  H0045108             CONDUIT     0.087     0  06:05      1.23    1.56    1.00
  
  
  ***************************
  Flow Classification Summary
  ***************************
  
  -------------------------------------------------------------------------------------
                      Adjusted    ---------- Fraction of Time in Flow Class ---------- 
                       /Actual         Up    Down  Sub   Sup   Up    Down  Norm  Inlet 
  Conduit               Length    Dry  Dry   Dry   Crit  Crit  Crit  Crit  Ltd   Ctrl  
  -------------------------------------------------------------------------------------
  H0014431                1.00   0.04  0.00  0.00  0.96  0.00  0.00  0.00  0.96  0.00
  H0014433                1.00   0.04  0.00  0.00  0.96  0.00  0.00  0.00  0.96  0.00
  H0014352                1.00   0.04  0.00  0.00  0.81  0.15  0.00  0.00  0.96  0.00
  H0014373                1.00   0.04  0.00  0.00  0.79  0.17  0.00  0.00  0.78  0.00
  H0017981                1.00   0.04  0.00  0.00  0.00  0.00  0.00  0.96  0.00  0.00
  H0017755                1.00   0.04  0.00  0.00  0.00  0.00  0.00  0.96  0.00  0.00
  H0017791                1.00   0.04  0.00  0.00  0.96  0.00  0.00  0.00  0.96  0.00
  H0017357                1.00   0.04  0.96  0.00  0.00  0.00  0.00  0.00  0.92  0.00
  H0018216                1.00   0.04  0.78  0.00  0.18  0.00  0.00  0.00  0.96  0.00
  H0016792                1.00   0.04  0.78  0.00  0.18  0.00  0.00  0.00  0.96  0.00
  H0019507                1.00   0.04  0.00  0.00  0.96  0.00  0.00  0.00  0.96  0.00
  H0019998                1.00   0.04  0.00  0.00  0.79  0.17  0.00  0.00  0.18  0.00
  H0019576                1.00   0.04  0.00  0.00  0.82  0.15  0.00  0.00  0.18  0.00
  H0020087                1.00   0.04  0.95  0.00  0.01  0.00  0.00  0.00  0.92  0.00
  H0020211                1.00   0.04  0.00  0.00  0.96  0.00  0.00  0.00  0.77  0.00
  H0018982                1.00   0.04  0.00  0.00  0.96  0.00  0.00  0.00  0.80  0.00
  H0018753                1.00   0.04  0.00  0.00  0.96  0.00  0.00  0.00  0.96  0.00
  H0018845                1.00   1.00  0.00  0.00  0.00  0.00  0.00  0.00  0.00  0.00
  H0018863                1.00   0.04  0.00  0.00  0.96  0.00  0.00  0.00  0.95  0.00
  H0019156                1.00   1.00  0.00  0.00  0.00  0.00  0.00  0.00  0.00  0.00
  H0018929                1.00   0.04  0.78  0.00  0.18  0.00  0.00  0.00  0.96  0.00
  H0018440                1.00   0.04  0.00  0.00  0.96  0.00  0.00  0.00  0.95  0.00
  H0018456                1.00   0.04  0.00  0.00  0.96  0.00  0.00  0.00  0.96  0.00
  H0018968                1.00   0.04  0.77  0.00  0.01  0.17  0.00  0.00  0.79  0.00
  H0022036                1.00   0.04  0.00  0.00  0.03  0.02  0.00  0.92  0.02  0.00
  H0021806                1.00   0.04  0.78  0.00  0.18  0.00  0.00  0.00  0.82  0.00
  H0022111                1.00   0.04  0.00  0.00  0.96  0.00  0.00  0.00  0.00  0.00
  H0021440                1.00   0.04  0.00  0.00  0.81  0.15  0.00  0.00  0.01  0.00
  H0021704                1.00   0.04  0.00  0.00  0.00  0.00  0.00  0.96  0.00  0.00
  H0020521                1.00   0.04  0.00  0.00  0.96  0.00  0.00  0.00  0.96  0.00
  H0020755                1.00   0.04  0.79  0.00  0.17  0.00  0.00  0.00  0.96  0.00
  H0020530                1.00   0.04  0.00  0.00  0.81  0.15  0.00  0.00  0.01  0.00
  H0020618                1.00   0.04  0.00  0.00  0.80  0.16  0.00  0.00  0.79  0.00
  H0021163                1.00   0.04  0.00  0.00  0.95  0.01  0.00  0.00  0.80  0.00
  H0020497                1.20   0.04  0.96  0.00  0.00  0.00  0.00  0.00  0.00  0.00
  H0024325                1.00   0.04  0.00  0.00  0.81  0.15  0.00  0.00  0.80  0.00
  H0023585                1.00   0.04  0.00  0.00  0.00  0.00  0.00  0.96  0.00  0.00
  H0024098                1.00   0.04  0.79  0.00  0.17  0.00  0.00  0.00  0.96  0.00
  H0024235                1.00   0.04  0.00  0.00  0.00  0.00  0.00  0.96  0.00  0.00
  H0024282                1.00   1.00  0.00  0.00  0.00  0.00  0.00  0.00  0.00  0.00
  H0024308                1.00   0.04  0.00  0.00  0.77  0.19  0.00  0.00  0.11  0.00
  H0024498                1.00   0.04  0.00  0.00  0.00  0.00  0.00  0.96  0.00  0.00
  H0026990                1.00   0.04  0.00  0.00  0.96  0.00  0.00  0.00  0.96  0.00
  H0041650                1.00   0.82  0.01  0.00  0.17  0.00  0.00  0.00  0.95  0.00
  H0041011                1.00   0.04  0.00  0.00  0.96  0.00  0.00  0.00  0.96  0.00
  H0045103                1.00   0.04  0.00  0.00  0.96  0.00  0.00  0.00  0.82  0.00
  H0045104                1.00   0.04  0.00  0.00  0.78  0.18  0.00  0.00  0.18  0.00
  H0045105                1.00   0.04  0.00  0.00  0.96  0.00  0.00  0.00  0.96  0.00
  H0045106                1.00   0.04  0.78  0.00  0.02  0.16  0.00  0.00  0.96  0.00
  H0045107                1.00   0.04  0.00  0.00  0.96  0.00  0.00  0.00  0.96  0.00
  H0045108                1.00   0.04  0.00  0.00  0.96  0.00  0.00  0.00  0.96  0.00
  
  
  *************************
  Conduit Surcharge Summary
  *************************
  
  ----------------------------------------------------------------------------
                                                           Hours        Hours 
                         --------- Hours Full --------   Above Full   Capacity
  Conduit                Both Ends  Upstream  Dnstream   Normal Flow   Limited
  ----------------------------------------------------------------------------
  H0014431                    0.10      0.11      0.10      0.12         0.10
  H0014433                    0.04      0.04      0.08      0.01         0.01
  H0017981                    0.01      0.04      0.01      0.14         0.03
  H0017755                    0.01      0.01      0.01      0.07         0.01
  H0017357                    0.01      0.01      0.04      0.01         0.01
  H0018216                    0.04      0.07      0.04      0.09         0.06
  H0019507                    0.05      0.05      0.11      0.01         0.01
  H0020211                    0.01      0.01      0.01      0.11         0.01
  H0018753                    0.04      0.04      0.11      0.01         0.01
  H0018863                    0.11      0.11      0.12      0.05         0.04
  H0018440                    0.09      0.13      0.09      0.15         0.12
  H0018456                    0.01      0.01      0.01      0.01         0.01
  H0021806                    0.01      0.06      0.01      0.08         0.04
  H0020521                    0.05      0.05      0.07      0.02         0.03
  H0020530                    0.01      0.01      0.01      0.04         0.01
  H0021163                    0.08      0.08      0.09      0.09         0.07
  H0024098                    0.12      0.12      0.15      0.09         0.09
  H0024498                    0.01      0.10      0.01      0.13         0.07
  H0041011                    0.09      0.09      0.12      0.01         0.01
  H0045107                    0.08      0.08      0.11      0.01         0.01
  H0045108                    0.11      0.11      0.13      0.07         0.08
  

  Analysis begun on:  Fri Mar 22 15:56:52 2024
  Analysis ended on:  Fri Mar 22 15:57:02 2024
  Total elapsed time: 00:00:10