
  EPA STORM WATER MANAGEMENT MODEL - VERSION 5.2 (Build 5.2.4)
  PYSWMM TOOLKIT API - VERSION v1.0 (2023-11-27)
  ------------------------------------------------------------

  Gievenbeck_e2_T50D540 
  
  ****************
  Analysis Options
  ****************
  Flow Units ............... CMS
  Process Models:
    Rainfall/Runoff ........ YES
    RDII ................... NO
    Snowmelt ............... NO
    Groundwater ............ NO
    Flow Routing ........... YES
    Ponding Allowed ........ NO
    Water Quality .......... NO
  Infiltration Method ...... HORTON
  Flow Routing Method ...... DYNWAVE
  Surcharge Method ......... SLOT
  Starting Date ............ 01/01/2024 00:00:00
  Ending Date .............. 01/04/2024 04:00:00
  Antecedent Dry Days ...... 14.0
  Report Time Step ......... 00:01:00
  Wet Time Step ............ 00:01:00
  Dry Time Step ............ 00:01:00
  Routing Time Step ........ 1.00 sec
  Variable Time Step ....... YES
  Maximum Trials ........... 8
  Number of Threads ........ 1
  Head Tolerance ........... 0.001500 m
  
  
  **************************        Volume         Depth
  Runoff Quantity Continuity     hectare-m            mm
  **************************     ---------       -------
  Total Precipitation ......         0.700        69.180
  Evaporation Loss .........         0.010         0.952
  Infiltration Loss ........         0.289        28.589
  Surface Runoff ...........         0.402        39.713
  Final Storage ............         0.000         0.000
  Continuity Error (%) .....        -0.108
  
  
  **************************        Volume        Volume
  Flow Routing Continuity        hectare-m      10^6 ltr
  **************************     ---------     ---------
  Dry Weather Inflow .......         0.000         0.000
  Wet Weather Inflow .......         0.402         4.020
  Groundwater Inflow .......         0.000         0.000
  RDII Inflow ..............         0.000         0.000
  External Inflow ..........         0.000         0.000
  External Outflow .........         0.379         3.788
  Flooding Loss ............         0.024         0.238
  Evaporation Loss .........         0.000         0.000
  Exfiltration Loss ........         0.000         0.000
  Initial Stored Volume ....         0.000         0.000
  Final Stored Volume ......         0.000         0.000
  Continuity Error (%) .....        -0.160
  
  
  *************************
  Highest Continuity Errors
  *************************
  Node R0019205 (-19.85%)
  
  
  ***************************
  Time-Step Critical Elements
  ***************************
  None
  
  
  ********************************
  Highest Flow Instability Indexes
  ********************************
  All links are stable.
  
  
  *********************************
  Most Frequent Nonconverging Nodes
  *********************************
  Convergence obtained at all time steps.
  
  
  *************************
  Routing Time Step Summary
  *************************
  Minimum Time Step           :     0.50 sec
  Average Time Step           :     1.00 sec
  Maximum Time Step           :     1.00 sec
  % of Time in Steady State   :     0.00
  Average Iterations per Step :     2.00
  % of Steps Not Converging   :     0.00
  Time Step Frequencies       :
      1.000 -  0.871 sec      :    99.98 %
      0.871 -  0.758 sec      :     0.01 %
      0.758 -  0.660 sec      :     0.00 %
      0.660 -  0.574 sec      :     0.00 %
      0.574 -  0.500 sec      :     0.00 %
  
  
  ***************************
  Subcatchment Runoff Summary
  ***************************
  
  ------------------------------------------------------------------------------------------------------------------------------
                            Total      Total      Total      Total     Imperv       Perv      Total       Total     Peak  Runoff
                           Precip      Runon       Evap      Infil     Runoff     Runoff     Runoff      Runoff   Runoff   Coeff
  Subcatchment                 mm         mm         mm         mm         mm         mm         mm    10^6 ltr      CMS
  ------------------------------------------------------------------------------------------------------------------------------
  EZG_368                   69.18       0.00       0.95      28.78      33.69      10.89      39.53        0.16     0.19   0.571
  EZG_392                   69.18       0.00       0.94      28.62      33.70      11.05      39.70        0.13     0.15   0.574
  EZG_352                   69.18       0.00       0.95      29.04      33.68      10.62      39.26        0.23     0.25   0.567
  EZG_372                   69.18       0.00       0.93      28.10      33.72      11.58      40.25        0.05     0.07   0.582
  EZG_416                   69.18       0.00       0.94      28.55      33.70      11.12      39.77        0.12     0.14   0.575
  EZG_388                   69.18       0.00       0.95      28.85      33.69      10.82      39.45        0.18     0.20   0.570
  EZG_394                   69.18       0.00       0.94      28.52      33.71      11.16      39.80        0.11     0.13   0.575
  EZG_400                   69.18       0.00       0.94      28.47      33.71      11.20      39.85        0.10     0.12   0.576
  EZG_390                   69.18       0.00       0.94      28.60      33.70      11.07      39.72        0.13     0.15   0.574
  EZG_350                   69.18       0.00       0.95      28.85      33.69      10.81      39.45        0.18     0.20   0.570
  EZG_370                   69.18       0.00       0.94      28.68      33.70      10.98      39.63        0.14     0.16   0.573
  EZG_398                   69.18       0.00       0.93      27.94      33.73      11.75      40.42        0.04     0.05   0.584
  EZG_382                   69.18       0.00       0.93      27.88      33.73      11.81      40.48        0.04     0.05   0.585
  EZG_374                   69.18       0.00       1.14      23.63      40.42      10.12      44.49        0.17     0.19   0.643
  EZG_412                   69.18       0.00       0.92      27.54      33.75      12.16      40.85        0.02     0.02   0.590
  EZG_344                   69.18       0.00       0.94      28.46      33.71      11.21      39.87        0.10     0.12   0.576
  EZG_376                   69.18       0.00       0.94      28.31      33.71      11.36      40.02        0.08     0.10   0.578
  EZG_356                   69.18       0.00       0.95      29.10      33.68      10.56      39.19        0.25     0.27   0.567
  EZG_386                   69.18       0.00       0.96      29.27      33.68      10.39      39.01        0.31     0.33   0.564
  EZG_380                   69.18       0.00       0.95      28.74      33.70      10.93      39.57        0.15     0.18   0.572
  EZG_378                   69.18       0.00       0.94      28.65      33.70      11.02      39.66        0.14     0.16   0.573
  EZG_414                   69.18       0.00       0.93      27.87      33.73      11.81      40.49        0.04     0.05   0.585
  EZG_402                   69.18       0.00       0.94      28.62      33.70      11.05      39.70        0.13     0.15   0.574
  EZG_358                   69.18       0.00       0.95      29.09      33.68      10.57      39.20        0.25     0.27   0.567
  EZG_364                   69.18       0.00       0.95      29.09      33.68      10.57      39.20        0.25     0.27   0.567
  EZG_410                   69.18       0.00       0.94      28.34      33.71      11.33      39.99        0.08     0.10   0.578
  EZG_366                   69.18       0.00       0.94      28.42      33.71      11.25      39.90        0.10     0.11   0.577
  EZG_18259                 69.18       0.00       0.94      28.42      33.71      11.25      39.91        0.09     0.11   0.577
  EZG_18258                 69.18       0.00       0.93      27.71      33.74      11.98      40.66        0.02     0.03   0.588
  EZG_346                   69.18       0.00       0.92      29.21      33.03      11.05      39.12        0.14     0.16   0.566
  EZG_348                   69.18       0.00       0.92      28.88      33.04      11.38      39.46        0.09     0.11   0.570
  
  
  ******************
  Node Depth Summary
  ******************
  
  ---------------------------------------------------------------------------------
                                 Average  Maximum  Maximum  Time of Max    Reported
                                   Depth    Depth      HGL   Occurrence   Max Depth
  Node                 Type       Meters   Meters   Meters  days hr:min      Meters
  ---------------------------------------------------------------------------------
  R0019466             JUNCTION     0.01     2.81    72.26     0  05:03        2.81
  R0019468             JUNCTION     0.01     2.73    72.04     0  05:03        2.73
  R0019831             JUNCTION     0.01     1.66    70.83     0  05:01        1.66
  R0019825             JUNCTION     0.01     1.50    70.34     0  05:01        1.50
  R0019843             JUNCTION     0.01     2.05    69.68     0  05:05        1.91
  R0019368             JUNCTION     0.02     1.95    68.74     0  05:06        1.95
  R0019369             JUNCTION     0.01     1.26    67.85     0  05:06        1.24
  R0019370             JUNCTION     0.01     0.71    66.61     0  05:05        0.68
  R0019345             JUNCTION     0.01     2.05    71.95     0  05:05        1.86
  R0019346             JUNCTION     0.01     2.14    71.94     0  05:05        1.86
  R0043600             JUNCTION     0.01     2.75    72.42     0  05:05        1.70
  R0019203             JUNCTION     0.01     2.52    72.06     0  05:05        1.81
  R0043594             JUNCTION     0.01     2.75    72.48     0  05:05        2.75
  R0021458             JUNCTION     0.01     2.60    72.25     0  05:05        2.38
  R0019202             JUNCTION     0.01     2.54    72.12     0  05:05        1.79
  R0019373             JUNCTION     0.01     2.80    72.47     0  05:05        2.55
  R0019254             JUNCTION     0.01     2.13    72.17     0  05:04        2.13
  R0019716             JUNCTION     0.01     2.40    71.41     0  05:05        2.02
  R0019946             JUNCTION     0.02     2.42    71.04     0  05:05        2.07
  R0013935             JUNCTION     0.01     1.62    70.45     0  05:02        1.62
  R0019939             JUNCTION     0.01     1.92    70.49     0  05:05        1.80
  R0019944             JUNCTION     0.01     1.84    70.12     0  05:05        1.61
  R0043703             JUNCTION     0.01     2.02    70.62     0  05:05        1.72
  R0019945             JUNCTION     0.01     1.90    70.30     0  05:05        1.64
  R0039621             JUNCTION     0.00     1.56    71.13     0  05:03        1.56
  R0019838             JUNCTION     0.01     1.80    71.26     0  05:03        1.80
  R0039606             JUNCTION     0.01     2.53    72.12     0  05:05        1.78
  R0019204             JUNCTION     0.00     0.00    69.91     0  00:00        0.00
  R0019205             JUNCTION     0.00     0.04    69.66     0  05:05        0.04
  R0019849             JUNCTION     0.01     1.88    70.40     0  05:05        1.71
  R0019371             JUNCTION     0.00     0.00    70.41     0  00:00        0.00
  R0019718             JUNCTION     0.02     2.56    71.98     0  05:05        1.90
  R0021442             JUNCTION     0.01     2.05    72.10     0  05:01        2.05
  R0019247             JUNCTION     0.01     2.26    72.14     0  05:05        1.90
  R0019719             JUNCTION     0.01     2.21    71.89     0  05:05        1.85
  R0019767             JUNCTION     0.01     0.74    65.47     0  05:06        0.74
  R0019768             JUNCTION     0.01     0.59    64.36     0  05:06        0.59
  R0021453             JUNCTION     0.00     2.40    72.35     0  05:05        2.30
  R0019839             JUNCTION     0.01     1.99    71.38     0  05:03        1.91
  R0019717             JUNCTION     0.01     2.43    71.77     0  05:05        1.93
  R0019252             JUNCTION     0.01     1.94    72.13     0  05:02        1.94
  R0019721             JUNCTION     0.01     1.96    71.83     0  05:05        1.85
  R0019942             JUNCTION     0.01     1.81    70.46     0  05:05        1.58
  R0019206             JUNCTION     0.00     0.76    69.83     0  05:05        0.39
  R0019840             JUNCTION     0.01     2.10    71.07     0  05:04        2.10
  R0043702             JUNCTION     0.01     2.30    71.00     0  05:05        2.30
  R0019723             JUNCTION     0.01     1.72    71.80     0  05:04        1.72
  R0019724             JUNCTION     0.00     1.72    71.88     0  05:04        1.65
  R0021433             JUNCTION     0.01     2.15    72.54     0  05:01        2.15
  R0021435             JUNCTION     0.01     2.11    72.29     0  05:01        2.11
  R0019769             OUTFALL      0.01     0.59    63.97     0  05:06        0.58
  
  
  *******************
  Node Inflow Summary
  *******************
  
  -------------------------------------------------------------------------------------------------
                                  Maximum  Maximum                  Lateral       Total        Flow
                                  Lateral    Total  Time of Max      Inflow      Inflow     Balance
                                   Inflow   Inflow   Occurrence      Volume      Volume       Error
  Node                 Type           CMS      CMS  days hr:min    10^6 ltr    10^6 ltr     Percent
  -------------------------------------------------------------------------------------------------
  R0019466             JUNCTION     0.185    0.199     0  05:05       0.163       0.251       0.013
  R0019468             JUNCTION     0.115    0.190     0  05:05      0.0955       0.322      -0.002
  R0019831             JUNCTION     0.150    0.150     0  05:05       0.129       0.129       0.028
  R0019825             JUNCTION     0.150    0.251     0  05:05       0.129       0.251      -0.003
  R0019843             JUNCTION     0.000    2.731     0  05:05           0        3.79      -0.048
  R0019368             JUNCTION     0.000    2.665     0  05:05           0        3.79      -0.027
  R0019369             JUNCTION     0.000    2.679     0  05:05           0        3.79      -0.013
  R0019370             JUNCTION     0.000    2.638     0  05:05           0        3.79       0.005
  R0019345             JUNCTION     0.000    0.162     0  05:02           0       0.219       0.016
  R0019346             JUNCTION     0.022    0.318     0  05:03      0.0163       0.385       0.011
  R0043600             JUNCTION     0.000    0.224     0  05:05           0       0.395      -0.066
  R0019203             JUNCTION     0.047    0.961     0  05:05      0.0358        1.07      -0.056
  R0043594             JUNCTION     0.252    0.674     0  05:04       0.232       0.343      -0.193
  R0021458             JUNCTION     0.203    0.661     0  05:05       0.181       0.525      -0.062
  R0019202             JUNCTION     0.069    0.846     0  05:05      0.0545       0.643      -0.213
  R0019373             JUNCTION     0.164    0.230     0  05:03       0.142       0.158       0.675
  R0019254             JUNCTION     0.137    0.176     0  05:02       0.116       0.221       0.018
  R0019716             JUNCTION     0.202    1.800     0  05:05        0.18        2.19      -0.012
  R0019946             JUNCTION     0.000    1.796     0  05:05           0        2.19      -0.007
  R0013935             JUNCTION     0.131    0.131     0  05:05        0.11        0.11       0.001
  R0019939             JUNCTION     0.052    0.129     0  05:02        0.04       0.138      -0.011
  R0019944             JUNCTION     0.123    2.132     0  05:05       0.103        2.76       0.008
  R0043703             JUNCTION     0.147    1.909     0  05:05       0.126        2.31      -0.009
  R0019945             JUNCTION     0.000    2.034     0  05:05           0        2.65      -0.017
  R0039621             JUNCTION     0.000    0.255     0  05:05           0      0.0405      -0.586
  R0019838             JUNCTION     0.270    0.282     0  05:05       0.251       0.256      -0.080
  R0039606             JUNCTION     0.000    0.667     0  05:05           0       0.523       0.119
  R0019204             JUNCTION     0.000    0.000     0  00:00           0           0       0.000 ltr
  R0019205             JUNCTION     0.000    0.020     0  05:05           0    0.000229     -16.560
  R0019849             JUNCTION     0.000    0.224     0  05:02           0       0.341       0.002
  R0019371             JUNCTION     0.000    0.000     0  00:00           0           0       0.000 ltr
  R0019718             JUNCTION     0.176    1.114     0  05:05       0.154        1.23      -0.296
  R0021442             JUNCTION     0.187    0.260     0  05:05       0.169       0.351       0.009
  R0019247             JUNCTION     0.098    0.225     0  05:04      0.0798       0.396       0.071
  R0019719             JUNCTION     0.102    0.403     0  05:03       0.084       0.468       0.344
  R0019767             JUNCTION     0.000    2.634     0  05:05           0        3.79      -0.003
  R0019768             JUNCTION     0.000    2.602     0  05:06           0        3.79       0.003
  R0021453             JUNCTION     0.121    0.606     0  05:04       0.101       0.104      -1.512
  R0019839             JUNCTION     0.267    0.403     0  05:03       0.248       0.463       0.028
  R0019717             JUNCTION     0.326    1.629     0  05:05       0.312        2.01       0.021
  R0019252             JUNCTION     0.157    0.174     0  05:05       0.136       0.138      -0.036
  R0019721             JUNCTION     0.046    0.168     0  05:03      0.0352       0.151       0.007
  R0019942             JUNCTION     0.000    0.124     0  05:01           0       0.203      -0.051
  R0019206             JUNCTION     0.000    0.119     0  05:05           0     0.00399       0.281
  R0019840             JUNCTION     0.000    0.548     0  05:03           0       0.782      -0.039
  R0043702             JUNCTION     0.268    0.731     0  05:03       0.248        1.03       0.285
  R0019723             JUNCTION     0.114    0.154     0  05:04      0.0948        0.12      -0.128
  R0019724             JUNCTION     0.033    0.058     0  05:02      0.0249      0.0252      -0.279
  R0021433             JUNCTION     0.164    0.164     0  05:05       0.142       0.142      -0.060
  R0021435             JUNCTION     0.107    0.178     0  05:05      0.0878       0.212       0.017
  R0019769             OUTFALL      0.000    2.611     0  05:06           0        3.79       0.000
  
  
  **********************
  Node Surcharge Summary
  **********************
  
  Surcharging occurs when water rises above the top of the highest conduit.
  ---------------------------------------------------------------------
                                               Max. Height   Min. Depth
                                   Hours       Above Crown    Below Rim
  Node                 Type      Surcharged         Meters       Meters
  ---------------------------------------------------------------------
  R0019466             JUNCTION        0.26          2.510        0.000
  R0019468             JUNCTION        0.25          2.430        0.000
  R0019831             JUNCTION        0.17          1.360        0.000
  R0019825             JUNCTION        0.21          1.200        0.000
  R0019843             JUNCTION        0.12          1.151        1.469
  R0019368             JUNCTION        0.15          1.050        0.000
  R0019369             JUNCTION        0.04          0.360        0.690
  R0019345             JUNCTION        0.16          1.750        0.000
  R0019346             JUNCTION        0.14          1.740        0.000
  R0043600             JUNCTION        0.16          2.354        0.226
  R0019203             JUNCTION        0.06          1.619        0.361
  R0043594             JUNCTION        0.05          1.820        0.000
  R0021458             JUNCTION        0.06          1.695        0.385
  R0019202             JUNCTION        0.06          1.642        0.358
  R0019373             JUNCTION        0.18          2.500        0.000
  R0019254             JUNCTION        0.18          1.830        0.000
  R0019716             JUNCTION        0.09          1.499        0.221
  R0019946             JUNCTION        0.12          1.520        0.000
  R0013935             JUNCTION        0.18          1.320        0.000
  R0019939             JUNCTION        0.26          1.620        0.000
  R0019944             JUNCTION        0.07          0.945        0.585
  R0043703             JUNCTION        0.07          1.121        0.199
  R0019945             JUNCTION        0.07          1.000        0.460
  R0039621             JUNCTION        0.09          1.060        0.000
  R0019838             JUNCTION        0.10          1.300        0.000
  R0039606             JUNCTION        0.06          1.631        0.369
  R0019849             JUNCTION        0.27          1.583        0.347
  R0019718             JUNCTION        0.07          1.660        0.340
  R0021442             JUNCTION        0.28          1.750        0.000
  R0019247             JUNCTION        0.18          1.860        0.000
  R0019719             JUNCTION        0.12          1.713        0.087
  R0021453             JUNCTION        0.03          1.500        0.000
  R0019839             JUNCTION        0.10          1.492        0.158
  R0019717             JUNCTION        0.07          1.491        0.359
  R0019252             JUNCTION        0.16          1.640        0.000
  R0019721             JUNCTION        0.13          1.560        0.000
  R0019942             JUNCTION        0.22          1.506        0.144
  R0019206             JUNCTION        0.02          0.464        1.246
  R0019840             JUNCTION        0.13          1.604        0.966
  R0043702             JUNCTION        0.14          1.798        1.112
  R0019723             JUNCTION        0.11          1.320        0.000
  R0019724             JUNCTION        0.11          1.418        0.032
  R0021433             JUNCTION        0.21          1.850        0.000
  R0021435             JUNCTION        0.25          1.810        0.000
  
  
  *********************
  Node Flooding Summary
  *********************
  
  Flooding refers to all water that overflows a node, whether it ponds or not.
  --------------------------------------------------------------------------
                                                             Total   Maximum
                                 Maximum   Time of Max       Flood    Ponded
                        Hours       Rate    Occurrence      Volume     Depth
  Node                 Flooded       CMS   days hr:min    10^6 ltr    Meters
  --------------------------------------------------------------------------
  R0019466                0.04     0.124      0  05:05       0.008     0.000
  R0019468                0.03     0.035      0  05:05       0.003     0.000
  R0019831                0.07     0.049      0  05:05       0.007     0.000
  R0019825                0.11     0.190      0  05:05       0.048     0.000
  R0019368                0.01     0.024      0  05:06       0.000     0.000
  R0019345                0.01     0.042      0  05:05       0.000     0.000
  R0019346                0.01     0.011      0  05:05       0.000     0.000
  R0043594                0.01     0.174      0  05:05       0.000     0.000
  R0019373                0.01     0.035      0  05:05       0.000     0.000
  R0019254                0.02     0.012      0  05:05       0.001     0.000
  R0019946                0.01     0.009      0  05:05       0.000     0.000
  R0013935                0.07     0.084      0  05:05       0.013     0.000
  R0019939                0.01     0.009      0  05:05       0.000     0.000
  R0039621                0.06     0.255      0  05:05       0.036     0.000
  R0019838                0.02     0.029      0  05:03       0.001     0.000
  R0021442                0.11     0.185      0  05:05       0.034     0.000
  R0019247                0.01     0.100      0  05:05       0.001     0.000
  R0021453                0.01     0.120      0  05:05       0.001     0.000
  R0019252                0.09     0.174      0  05:05       0.032     0.000
  R0019721                0.01     0.056      0  05:05       0.001     0.000
  R0019723                0.03     0.055      0  05:05       0.004     0.000
  R0021433                0.10     0.093      0  05:05       0.019     0.000
  R0021435                0.12     0.106      0  05:05       0.030     0.000
  
  
  ***********************
  Outfall Loading Summary
  ***********************
  
  -----------------------------------------------------------
                         Flow       Avg       Max       Total
                         Freq      Flow      Flow      Volume
  Outfall Node           Pcnt       CMS       CMS    10^6 ltr
  -----------------------------------------------------------
  R0019769              14.60     0.096     2.611       3.788
  -----------------------------------------------------------
  System                14.60     0.096     2.611       3.788
  
  
  ********************
  Link Flow Summary
  ********************
  
  -----------------------------------------------------------------------------
                                 Maximum  Time of Max   Maximum    Max/    Max/
                                  |Flow|   Occurrence   |Veloc|    Full    Full
  Link                 Type          CMS  days hr:min     m/sec    Flow   Depth
  -----------------------------------------------------------------------------
  H0014431             CONDUIT     0.088     0  05:02      1.25    1.63    1.00
  H0014433             CONDUIT     0.100     0  05:05      1.42    1.28    1.00
  H0014352             CONDUIT     2.665     0  05:05      4.19    1.09    1.00
  H0014373             CONDUIT     2.638     0  05:05      4.37    1.22    1.00
  H0017981             CONDUIT     0.164     0  05:02      2.32    4.64    1.00
  H0017755             CONDUIT     0.249     0  05:04      1.98    2.02    1.00
  H0017791             CONDUIT     0.473     0  05:05      0.74    0.69    1.00
  H0017357             CONDUIT     0.219     0  05:04      3.09    3.50    1.00
  H0018216             CONDUIT     0.162     0  05:02      2.29    2.95    1.00
  H0016792             CONDUIT     1.796     0  05:05      2.82    1.03    1.00
  H0019507             CONDUIT     0.088     0  05:02      1.24    1.22    1.00
  H0019998             CONDUIT     2.122     0  05:05      3.47    0.85    1.00
  H0019576             CONDUIT     1.946     0  05:05      3.06    1.31    1.00
  H0020087             CONDUIT     0.255     0  05:05      1.30    1.12    1.00
  H0020211             CONDUIT     1.793     0  05:05      2.82    4.47    1.00
  H0018982             CONDUIT     0.667     0  05:05      1.05    1.07    1.00
  H0018753             CONDUIT     0.082     0  05:03      1.16    1.16    1.00
  H0018845             CONDUIT     0.000     0  00:00      0.00    0.00    0.07
  H0018863             CONDUIT     0.125     0  05:02      1.77    2.94    1.00
  H0019156             CONDUIT     0.000     0  00:00      0.00    0.00    0.00
  H0018929             CONDUIT     0.961     0  05:05      1.51    0.83    1.00
  H0018440             CONDUIT     0.158     0  05:01      2.23    2.83    1.00
  H0018456             CONDUIT     0.311     0  05:03      2.48    1.89    1.00
  H0018968             CONDUIT     2.602     0  05:06      5.17    1.00    0.74
  H0022036             CONDUIT     0.487     0  05:04      0.76    0.38    1.00
  H0021806             CONDUIT     0.223     0  05:03      1.78    1.98    1.00
  H0022111             CONDUIT     0.184     0  05:03      0.94    1.32    1.00
  H0021440             CONDUIT     1.629     0  05:05      2.56    1.05    1.00
  H0021704             CONDUIT     1.120     0  05:05      1.76    2.13    1.00
  H0020521             CONDUIT     0.083     0  05:02      1.17    1.67    1.00
  H0020755             CONDUIT     0.161     0  05:03      1.28    1.77    1.00
  H0020530             CONDUIT     2.679     0  05:05      4.21    2.29    1.00
  H0020618             CONDUIT     2.038     0  05:05      3.35    1.26    1.00
  H0021163             CONDUIT     0.124     0  05:01      1.75    2.07    1.00
  H0020497             CONDUIT     0.119     0  05:05      1.68    0.26    1.00
  H0024325             CONDUIT     0.394     0  05:03      2.01    1.17    1.00
  H0023585             CONDUIT     0.706     0  05:03      3.60    1.62    1.00
  H0024098             CONDUIT     0.221     0  05:02      3.12    2.58    1.00
  H0024235             CONDUIT     0.398     0  05:03      2.03    1.63    1.00
  H0024282             CONDUIT     0.020     0  05:05      0.48    0.20    1.00
  H0024308             CONDUIT     2.611     0  05:06      5.91    0.76    0.66
  H0024498             CONDUIT     0.165     0  05:02      2.34    2.56    1.00
  H0026990             CONDUIT     0.125     0  05:03      0.99    0.95    1.00
  H0041650             CONDUIT     0.839     0  05:05      1.32    0.98    1.00
  H0041011             CONDUIT     0.115     0  05:01      1.63    1.14    1.00
  H0045103             CONDUIT     0.638     0  05:05      1.02    0.80    1.00
  H0045104             CONDUIT     2.634     0  05:05      4.88    0.93    0.79
  H0045105             CONDUIT     0.041     0  05:04      0.58    0.72    1.00
  H0045106             CONDUIT     0.507     0  05:03      2.58    0.68    1.00
  H0045107             CONDUIT     0.072     0  05:07      1.01    1.18    1.00
  H0045108             CONDUIT     0.088     0  05:09      1.25    1.59    1.00
  
  
  ***************************
  Flow Classification Summary
  ***************************
  
  -------------------------------------------------------------------------------------
                      Adjusted    ---------- Fraction of Time in Flow Class ---------- 
                       /Actual         Up    Down  Sub   Sup   Up    Down  Norm  Inlet 
  Conduit               Length    Dry  Dry   Dry   Crit  Crit  Crit  Crit  Ltd   Ctrl  
  -------------------------------------------------------------------------------------
  H0014431                1.00   0.03  0.00  0.00  0.97  0.00  0.00  0.00  0.96  0.00
  H0014433                1.00   0.03  0.00  0.00  0.97  0.00  0.00  0.00  0.96  0.00
  H0014352                1.00   0.03  0.00  0.00  0.85  0.12  0.00  0.00  0.96  0.00
  H0014373                1.00   0.03  0.00  0.00  0.83  0.14  0.00  0.00  0.81  0.00
  H0017981                1.00   0.03  0.00  0.00  0.00  0.00  0.00  0.97  0.00  0.00
  H0017755                1.00   0.03  0.00  0.00  0.00  0.00  0.00  0.96  0.00  0.00
  H0017791                1.00   0.03  0.00  0.00  0.97  0.00  0.00  0.00  0.96  0.00
  H0017357                1.00   0.03  0.96  0.00  0.00  0.00  0.00  0.00  0.93  0.00
  H0018216                1.00   0.03  0.82  0.00  0.15  0.00  0.00  0.00  0.96  0.00
  H0016792                1.00   0.03  0.81  0.00  0.15  0.00  0.00  0.00  0.96  0.00
  H0019507                1.00   0.03  0.00  0.00  0.97  0.00  0.00  0.00  0.96  0.00
  H0019998                1.00   0.03  0.00  0.00  0.83  0.14  0.00  0.00  0.15  0.00
  H0019576                1.00   0.03  0.00  0.00  0.85  0.12  0.00  0.00  0.14  0.00
  H0020087                1.00   0.03  0.95  0.00  0.02  0.00  0.00  0.00  0.93  0.00
  H0020211                1.00   0.03  0.00  0.00  0.97  0.00  0.00  0.00  0.81  0.00
  H0018982                1.00   0.03  0.00  0.00  0.97  0.00  0.00  0.00  0.84  0.00
  H0018753                1.00   0.03  0.00  0.00  0.97  0.00  0.00  0.00  0.96  0.00
  H0018845                1.00   0.07  0.93  0.00  0.00  0.00  0.00  0.00  0.00  0.00
  H0018863                1.00   0.03  0.00  0.00  0.97  0.00  0.00  0.00  0.96  0.00
  H0019156                1.00   1.00  0.00  0.00  0.00  0.00  0.00  0.00  0.00  0.00
  H0018929                1.00   0.03  0.82  0.00  0.15  0.00  0.00  0.00  0.96  0.00
  H0018440                1.00   0.03  0.00  0.00  0.97  0.00  0.00  0.00  0.96  0.00
  H0018456                1.00   0.03  0.00  0.00  0.97  0.00  0.00  0.00  0.96  0.00
  H0018968                1.00   0.03  0.00  0.00  0.82  0.14  0.00  0.00  0.83  0.00
  H0022036                1.00   0.03  0.00  0.00  0.05  0.07  0.00  0.86  0.04  0.00
  H0021806                1.00   0.03  0.82  0.00  0.15  0.00  0.00  0.00  0.85  0.00
  H0022111                1.00   0.03  0.00  0.00  0.97  0.00  0.00  0.00  0.00  0.00
  H0021440                1.00   0.03  0.00  0.00  0.85  0.12  0.00  0.00  0.02  0.00
  H0021704                1.00   0.03  0.00  0.00  0.00  0.00  0.00  0.96  0.00  0.00
  H0020521                1.00   0.03  0.00  0.00  0.97  0.00  0.00  0.00  0.96  0.00
  H0020755                1.00   0.03  0.83  0.00  0.14  0.00  0.00  0.00  0.96  0.00
  H0020530                1.00   0.03  0.00  0.00  0.85  0.12  0.00  0.00  0.02  0.00
  H0020618                1.00   0.03  0.00  0.00  0.84  0.13  0.00  0.00  0.85  0.00
  H0021163                1.00   0.03  0.00  0.00  0.95  0.02  0.00  0.00  0.83  0.00
  H0020497                1.20   0.03  0.96  0.00  0.01  0.00  0.00  0.00  0.93  0.00
  H0024325                1.00   0.03  0.00  0.00  0.85  0.12  0.00  0.00  0.83  0.00
  H0023585                1.00   0.03  0.00  0.00  0.00  0.00  0.00  0.97  0.00  0.00
  H0024098                1.00   0.03  0.82  0.00  0.14  0.00  0.00  0.00  0.96  0.00
  H0024235                1.00   0.03  0.00  0.00  0.00  0.00  0.00  0.97  0.00  0.00
  H0024282                1.00   0.07  0.00  0.00  0.93  0.00  0.00  0.00  0.00  0.00
  H0024308                1.00   0.03  0.00  0.00  0.81  0.16  0.00  0.00  0.08  0.00
  H0024498                1.00   0.03  0.00  0.00  0.00  0.00  0.00  0.97  0.00  0.00
  H0026990                1.00   0.03  0.00  0.00  0.97  0.00  0.00  0.00  0.96  0.00
  H0041650                1.00   0.85  0.01  0.00  0.14  0.00  0.00  0.00  0.95  0.00
  H0041011                1.00   0.03  0.00  0.00  0.97  0.00  0.00  0.00  0.96  0.00
  H0045103                1.00   0.03  0.00  0.00  0.97  0.00  0.00  0.00  0.85  0.00
  H0045104                1.00   0.03  0.00  0.00  0.82  0.15  0.00  0.00  0.15  0.00
  H0045105                1.00   0.03  0.00  0.00  0.97  0.00  0.00  0.00  0.97  0.00
  H0045106                1.00   0.03  0.82  0.00  0.02  0.13  0.00  0.00  0.96  0.00
  H0045107                1.00   0.03  0.00  0.00  0.97  0.00  0.00  0.00  0.96  0.00
  H0045108                1.00   0.03  0.00  0.00  0.97  0.00  0.00  0.00  0.96  0.00
  
  
  *************************
  Conduit Surcharge Summary
  *************************
  
  ----------------------------------------------------------------------------
                                                           Hours        Hours 
                         --------- Hours Full --------   Above Full   Capacity
  Conduit                Both Ends  Upstream  Dnstream   Normal Flow   Limited
  ----------------------------------------------------------------------------
  H0014431                    0.25      0.26      0.25      0.28         0.25
  H0014433                    0.17      0.17      0.21      0.08         0.08
  H0014352                    0.12      0.12      0.15      0.04         0.03
  H0014373                    0.01      0.04      0.01      0.10         0.02
  H0017981                    0.14      0.16      0.14      0.31         0.15
  H0017755                    0.15      0.16      0.15      0.18         0.14
  H0017791                    0.05      0.05      0.06      0.01         0.01
  H0017357                    0.12      0.12      0.18      0.12         0.01
  H0018216                    0.16      0.18      0.16      0.22         0.18
  H0016792                    0.09      0.09      0.12      0.01         0.01
  H0019507                    0.18      0.18      0.26      0.03         0.02
  H0019998                    0.07      0.07      0.12      0.01         0.01
  H0019576                    0.07      0.07      0.07      0.09         0.05
  H0020087                    0.09      0.09      0.10      0.02         0.01
  H0020211                    0.07      0.12      0.07      0.27         0.09
  H0018982                    0.06      0.06      0.06      0.01         0.01
  H0018753                    0.18      0.18      0.26      0.01         0.01
  H0018863                    0.26      0.26      0.27      0.16         0.16
  H0018929                    0.06      0.06      0.07      0.01         0.01
  H0018440                    0.21      0.28      0.21      0.31         0.25
  H0018456                    0.14      0.14      0.14      0.15         0.13
  H0022036                    0.03      0.03      0.05      0.01         0.01
  H0021806                    0.16      0.18      0.16      0.19         0.16
  H0022111                    0.10      0.10      0.10      0.04         0.03
  H0021440                    0.07      0.07      0.09      0.01         0.01
  H0021704                    0.07      0.07      0.07      0.16         0.06
  H0020521                    0.16      0.16      0.18      0.07         0.06
  H0020755                    0.13      0.13      0.14      0.07         0.08
  H0020530                    0.04      0.15      0.04      0.19         0.14
  H0020618                    0.07      0.07      0.07      0.10         0.07
  H0021163                    0.21      0.21      0.22      0.17         0.14
  H0020497                    0.02      0.02      0.22      0.01         0.01
  H0024325                    0.10      0.10      0.13      0.01         0.01
  H0023585                    0.13      0.14      0.13      0.14         0.12
  H0024098                    0.27      0.27      0.32      0.22         0.21
  H0024235                    0.11      0.12      0.12      0.11         0.09
  H0024282                    0.01      0.01      0.02      0.01         0.01
  H0024498                    0.13      0.25      0.13      0.30         0.20
  H0026990                    0.11      0.11      0.13      0.01         0.01
  H0041650                    0.06      0.06      0.06      0.01         0.01
  H0041011                    0.22      0.22      0.27      0.03         0.03
  H0045103                    0.06      0.06      0.06      0.01         0.01
  H0045105                    0.11      0.11      0.12      0.01         0.01
  H0045106                    0.13      0.13      0.14      0.01         0.01
  H0045107                    0.21      0.21      0.25      0.11         0.10
  H0045108                    0.25      0.25      0.28      0.19         0.19
  

  Analysis begun on:  Fri Mar 22 15:56:38 2024
  Analysis ended on:  Fri Mar 22 15:56:47 2024
  Total elapsed time: 00:00:09