
  EPA STORM WATER MANAGEMENT MODEL - VERSION 5.2 (Build 5.2.4)
  PYSWMM TOOLKIT API - VERSION v1.0 (2023-11-27)
  ------------------------------------------------------------

  Gievenbeck_2023-09-11 21 55 00_hN38 95 
  
  ****************
  Analysis Options
  ****************
  Flow Units ............... CMS
  Process Models:
    Rainfall/Runoff ........ YES
    RDII ................... NO
    Snowmelt ............... NO
    Groundwater ............ NO
    Flow Routing ........... YES
    Ponding Allowed ........ NO
    Water Quality .......... NO
  Infiltration Method ...... HORTON
  Flow Routing Method ...... DYNWAVE
  Surcharge Method ......... SLOT
  Starting Date ............ 01/01/2024 00:00:00
  Ending Date .............. 01/04/2024 04:00:00
  Antecedent Dry Days ...... 14.0
  Report Time Step ......... 00:01:00
  Wet Time Step ............ 00:01:00
  Dry Time Step ............ 00:01:00
  Routing Time Step ........ 1.00 sec
  Variable Time Step ....... YES
  Maximum Trials ........... 8
  Number of Threads ........ 1
  Head Tolerance ........... 0.001500 m
  
  
  **************************        Volume         Depth
  Runoff Quantity Continuity     hectare-m            mm
  **************************     ---------       -------
  Total Precipitation ......         0.394        38.950
  Evaporation Loss .........         0.012         1.148
  Infiltration Loss ........         0.211        20.796
  Surface Runoff ...........         0.173        17.056
  Final Storage ............         0.000         0.000
  Continuity Error (%) .....        -0.129
  
  
  **************************        Volume        Volume
  Flow Routing Continuity        hectare-m      10^6 ltr
  **************************     ---------     ---------
  Dry Weather Inflow .......         0.000         0.000
  Wet Weather Inflow .......         0.173         1.726
  Groundwater Inflow .......         0.000         0.000
  RDII Inflow ..............         0.000         0.000
  External Inflow ..........         0.000         0.000
  External Outflow .........         0.173         1.728
  Flooding Loss ............         0.000         0.000
  Evaporation Loss .........         0.000         0.000
  Exfiltration Loss ........         0.000         0.000
  Initial Stored Volume ....         0.000         0.000
  Final Stored Volume ......         0.000         0.000
  Continuity Error (%) .....        -0.093
  
  
  *************************
  Highest Continuity Errors
  *************************
  Node R0019718 (-1.36%)
  Node R0019373 (1.21%)
  
  
  ***************************
  Time-Step Critical Elements
  ***************************
  None
  
  
  ********************************
  Highest Flow Instability Indexes
  ********************************
  All links are stable.
  
  
  *********************************
  Most Frequent Nonconverging Nodes
  *********************************
  Convergence obtained at all time steps.
  
  
  *************************
  Routing Time Step Summary
  *************************
  Minimum Time Step           :     0.37 sec
  Average Time Step           :     1.00 sec
  Maximum Time Step           :     1.00 sec
  % of Time in Steady State   :     0.00
  Average Iterations per Step :     2.00
  % of Steps Not Converging   :     0.00
  Time Step Frequencies       :
      1.000 -  0.871 sec      :   100.00 %
      0.871 -  0.758 sec      :     0.00 %
      0.758 -  0.660 sec      :     0.00 %
      0.660 -  0.574 sec      :     0.00 %
      0.574 -  0.500 sec      :     0.00 %
  
  
  ***************************
  Subcatchment Runoff Summary
  ***************************
  
  ------------------------------------------------------------------------------------------------------------------------------
                            Total      Total      Total      Total     Imperv       Perv      Total       Total     Peak  Runoff
                           Precip      Runon       Evap      Infil     Runoff     Runoff     Runoff      Runoff   Runoff   Coeff
  Subcatchment                 mm         mm         mm         mm         mm         mm         mm    10^6 ltr      CMS
  ------------------------------------------------------------------------------------------------------------------------------
  EZG_368                   38.95       0.00       1.14      20.94      18.38       1.29      16.92        0.07     0.06   0.434
  EZG_392                   38.95       0.00       1.14      20.84      18.39       1.39      17.02        0.06     0.05   0.437
  EZG_352                   38.95       0.00       1.15      21.08      18.37       1.15      16.77        0.10     0.09   0.430
  EZG_372                   38.95       0.00       1.13      20.49      18.41       1.76      17.41        0.02     0.02   0.447
  EZG_416                   38.95       0.00       1.14      20.80      18.39       1.43      17.07        0.05     0.05   0.438
  EZG_388                   38.95       0.00       1.14      20.98      18.38       1.25      16.87        0.08     0.07   0.433
  EZG_394                   38.95       0.00       1.13      20.78      18.39       1.45      17.09        0.05     0.04   0.439
  EZG_400                   38.95       0.00       1.13      20.75      18.39       1.49      17.12        0.04     0.04   0.440
  EZG_390                   38.95       0.00       1.14      20.83      18.39       1.40      17.03        0.05     0.05   0.437
  EZG_350                   38.95       0.00       1.14      20.98      18.38       1.25      16.87        0.08     0.07   0.433
  EZG_370                   38.95       0.00       1.14      20.89      18.39       1.35      16.98        0.06     0.06   0.436
  EZG_398                   38.95       0.00       1.12      20.36      18.42       1.89      17.54        0.02     0.02   0.450
  EZG_382                   38.95       0.00       1.12      20.31      18.42       1.94      17.59        0.02     0.02   0.452
  EZG_374                   38.95       0.00       1.37      17.33      22.05       1.56      20.30        0.08     0.07   0.521
  EZG_412                   38.95       0.00       1.12      20.00      18.44       2.25      17.93        0.01     0.01   0.460
  EZG_344                   38.95       0.00       1.13      20.74      18.40       1.49      17.13        0.04     0.04   0.440
  EZG_376                   38.95       0.00       1.13      20.65      18.40       1.59      17.23        0.03     0.03   0.442
  EZG_356                   38.95       0.00       1.15      21.11      18.37       1.12      16.73        0.11     0.09   0.430
  EZG_386                   38.95       0.00       1.15      21.19      18.36       1.03      16.64        0.13     0.11   0.427
  EZG_380                   38.95       0.00       1.14      20.92      18.38       1.32      16.94        0.07     0.06   0.435
  EZG_378                   38.95       0.00       1.14      20.87      18.39       1.37      17.00        0.06     0.05   0.436
  EZG_414                   38.95       0.00       1.12      20.31      18.42       1.94      17.60        0.02     0.02   0.452
  EZG_402                   38.95       0.00       1.14      20.85      18.39       1.39      17.02        0.06     0.05   0.437
  EZG_358                   38.95       0.00       1.15      21.11      18.37       1.12      16.74        0.11     0.09   0.430
  EZG_364                   38.95       0.00       1.15      21.11      18.37       1.12      16.74        0.11     0.09   0.430
  EZG_410                   38.95       0.00       1.13      20.67      18.40       1.57      17.21        0.04     0.03   0.442
  EZG_366                   38.95       0.00       1.13      20.72      18.40       1.52      17.15        0.04     0.04   0.440
  EZG_18259                 38.95       0.00       1.13      20.72      18.40       1.52      17.16        0.04     0.04   0.440
  EZG_18258                 38.95       0.00       1.12      20.17      18.43       2.09      17.75        0.01     0.01   0.456
  EZG_346                   38.95       0.00       1.12      21.25      18.02       1.32      16.64        0.06     0.05   0.427
  EZG_348                   38.95       0.00       1.11      21.05      18.03       1.53      16.85        0.04     0.04   0.433
  
  
  ******************
  Node Depth Summary
  ******************
  
  ---------------------------------------------------------------------------------
                                 Average  Maximum  Maximum  Time of Max    Reported
                                   Depth    Depth      HGL   Occurrence   Max Depth
  Node                 Type       Meters   Meters   Meters  days hr:min      Meters
  ---------------------------------------------------------------------------------
  R0019466             JUNCTION     0.00     0.66    70.11     0  02:20        0.66
  R0019468             JUNCTION     0.01     0.58    69.89     0  02:20        0.58
  R0019831             JUNCTION     0.00     0.73    69.90     0  02:20        0.71
  R0019825             JUNCTION     0.00     0.95    69.79     0  02:20        0.92
  R0019843             JUNCTION     0.01     0.49    68.12     0  02:20        0.49
  R0019368             JUNCTION     0.01     0.71    67.50     0  02:21        0.70
  R0019369             JUNCTION     0.01     0.52    67.11     0  02:21        0.52
  R0019370             JUNCTION     0.01     0.44    66.34     0  02:21        0.44
  R0019345             JUNCTION     0.01     0.39    70.29     0  02:20        0.39
  R0019346             JUNCTION     0.00     0.32    70.12     0  02:20        0.31
  R0043600             JUNCTION     0.01     0.39    70.06     0  02:20        0.38
  R0019203             JUNCTION     0.01     0.42    69.96     0  02:20        0.41
  R0043594             JUNCTION     0.00     0.29    70.02     0  02:20        0.28
  R0021458             JUNCTION     0.01     0.35    70.00     0  02:20        0.35
  R0019202             JUNCTION     0.00     0.39    69.97     0  02:20        0.38
  R0019373             JUNCTION     0.00     0.44    70.11     0  02:20        0.44
  R0019254             JUNCTION     0.00     0.66    70.70     0  02:20        0.65
  R0019716             JUNCTION     0.01     0.46    69.47     0  02:20        0.46
  R0019946             JUNCTION     0.01     0.63    69.25     0  02:20        0.63
  R0013935             JUNCTION     0.00     0.57    69.40     0  02:20        0.56
  R0019939             JUNCTION     0.00     0.75    69.32     0  02:20        0.73
  R0019944             JUNCTION     0.01     0.40    68.68     0  02:21        0.40
  R0043703             JUNCTION     0.01     0.49    69.09     0  02:21        0.49
  R0019945             JUNCTION     0.01     0.50    68.90     0  02:21        0.50
  R0039621             JUNCTION     0.00     0.17    69.74     0  02:20        0.17
  R0019838             JUNCTION     0.00     0.28    69.74     0  02:20        0.28
  R0039606             JUNCTION     0.00     0.38    69.97     0  02:20        0.38
  R0019204             JUNCTION     0.00     0.00    69.91     0  00:00        0.00
  R0019205             JUNCTION     0.00     0.00    69.62     0  00:00        0.00
  R0019849             JUNCTION     0.00     0.72    69.24     0  02:20        0.69
  R0019371             JUNCTION     0.00     0.00    70.41     0  00:00        0.00
  R0019718             JUNCTION     0.01     0.50    69.92     0  02:20        0.50
  R0021442             JUNCTION     0.01     1.55    71.60     0  02:20        1.51
  R0019247             JUNCTION     0.01     0.66    70.54     0  02:20        0.64
  R0019719             JUNCTION     0.01     0.33    70.01     0  02:20        0.32
  R0019767             JUNCTION     0.01     0.47    65.20     0  02:21        0.47
  R0019768             JUNCTION     0.01     0.40    64.17     0  02:21        0.39
  R0021453             JUNCTION     0.00     0.11    70.06     0  02:20        0.11
  R0019839             JUNCTION     0.00     0.26    69.65     0  02:20        0.26
  R0019717             JUNCTION     0.01     0.44    69.78     0  02:20        0.44
  R0019252             JUNCTION     0.00     0.67    70.86     0  02:20        0.66
  R0019721             JUNCTION     0.00     0.28    70.15     0  02:20        0.28
  R0019942             JUNCTION     0.00     0.70    69.35     0  02:20        0.66
  R0019206             JUNCTION     0.00     0.00    69.07     0  00:00        0.00
  R0019840             JUNCTION     0.00     0.23    69.20     0  02:20        0.23
  R0043702             JUNCTION     0.01     0.35    69.05     0  02:20        0.35
  R0019723             JUNCTION     0.00     0.17    70.25     0  02:20        0.17
  R0019724             JUNCTION     0.00     0.10    70.26     0  02:20        0.10
  R0021433             JUNCTION     0.00     1.59    71.98     0  02:20        1.53
  R0021435             JUNCTION     0.01     1.67    71.85     0  02:20        1.62
  R0019769             OUTFALL      0.01     0.40    63.78     0  02:21        0.39
  
  
  *******************
  Node Inflow Summary
  *******************
  
  -------------------------------------------------------------------------------------------------
                                  Maximum  Maximum                  Lateral       Total        Flow
                                  Lateral    Total  Time of Max      Inflow      Inflow     Balance
                                   Inflow   Inflow   Occurrence      Volume      Volume       Error
  Node                 Type           CMS      CMS  days hr:min    10^6 ltr    10^6 ltr     Percent
  -------------------------------------------------------------------------------------------------
  R0019466             JUNCTION     0.063    0.071     0  02:16      0.0699       0.121       0.022
  R0019468             JUNCTION     0.038    0.106     0  02:20      0.0411       0.163       0.018
  R0019831             JUNCTION     0.050    0.050     0  02:20      0.0551      0.0551      -0.016
  R0019825             JUNCTION     0.050    0.097     0  02:20      0.0553        0.11       0.038
  R0019843             JUNCTION     0.000    1.344     0  02:20           0        1.73      -0.016
  R0019368             JUNCTION     0.000    1.351     0  02:21           0        1.73       0.020
  R0019369             JUNCTION     0.000    1.401     0  02:21           0        1.73      -0.016
  R0019370             JUNCTION     0.000    1.360     0  02:21           0        1.73       0.004
  R0019345             JUNCTION     0.000    0.095     0  02:20           0       0.108       0.080
  R0019346             JUNCTION     0.008    0.159     0  02:20     0.00716       0.182       0.036
  R0043600             JUNCTION     0.000    0.174     0  02:20           0        0.21       0.077
  R0019203             JUNCTION     0.016    0.410     0  02:20      0.0156       0.477      -0.014
  R0043594             JUNCTION     0.086    0.126     0  02:20       0.099       0.142      -0.203
  R0021458             JUNCTION     0.069    0.180     0  02:20      0.0775        0.22      -0.021
  R0019202             JUNCTION     0.023    0.225     0  02:20      0.0236       0.252      -0.272
  R0019373             JUNCTION     0.055    0.055     0  02:20      0.0609      0.0611       1.222
  R0019254             JUNCTION     0.046    0.096     0  02:20      0.0497       0.108      -0.009
  R0019716             JUNCTION     0.068    0.793     0  02:20      0.0769       0.973      -0.038
  R0019946             JUNCTION     0.000    0.795     0  02:20           0       0.974       0.033
  R0013935             JUNCTION     0.044    0.044     0  02:20      0.0474      0.0474      -0.077
  R0019939             JUNCTION     0.018    0.059     0  02:20      0.0174      0.0648      -0.020
  R0019944             JUNCTION     0.041    0.994     0  02:21      0.0441        1.25       0.007
  R0043703             JUNCTION     0.049    0.835     0  02:21      0.0539        1.03       0.009
  R0019945             JUNCTION     0.000    0.969     0  02:21           0         1.2      -0.004
  R0039621             JUNCTION     0.000    0.004     0  02:10           0     0.00115       1.334
  R0019838             JUNCTION     0.093    0.093     0  02:20       0.107       0.108      -0.019
  R0039606             JUNCTION     0.000    0.164     0  02:20           0        0.22       0.136
  R0019204             JUNCTION     0.000    0.000     0  00:00           0           0       0.000 ltr
  R0019205             JUNCTION     0.000    0.000     0  00:00           0           0       0.000 ltr
  R0019849             JUNCTION     0.000    0.149     0  02:20           0       0.175       0.022
  R0019371             JUNCTION     0.000    0.000     0  00:00           0           0       0.000 ltr
  R0019718             JUNCTION     0.059    0.457     0  02:20       0.066       0.544      -1.341
  R0021442             JUNCTION     0.068    0.147     0  02:20       0.077       0.175      -0.007
  R0019247             JUNCTION     0.033    0.174     0  02:20      0.0344       0.209      -0.049
  R0019719             JUNCTION     0.034    0.188     0  02:20      0.0361       0.218       0.240
  R0019767             JUNCTION     0.000    1.360     0  02:21           0        1.73      -0.007
  R0019768             JUNCTION     0.000    1.368     0  02:21           0        1.73       0.018
  R0021453             JUNCTION     0.040    0.040     0  02:20      0.0433      0.0433       0.125
  R0019839             JUNCTION     0.092    0.178     0  02:20       0.106       0.213      -0.030
  R0019717             JUNCTION     0.113    0.735     0  02:20       0.133       0.901       0.570
  R0019252             JUNCTION     0.053    0.053     0  02:20      0.0582      0.0582      -0.137
  R0019721             JUNCTION     0.016    0.063     0  02:20      0.0153       0.067       0.030
  R0019942             JUNCTION     0.000    0.094     0  02:20           0        0.11      -0.025
  R0019206             JUNCTION     0.000    0.000     0  00:00           0           0       0.000 ltr
  R0019840             JUNCTION     0.000    0.281     0  02:20           0       0.376       0.022
  R0043702             JUNCTION     0.092    0.367     0  02:20       0.106       0.482      -0.009
  R0019723             JUNCTION     0.038    0.049     0  02:20      0.0408      0.0516      -0.146
  R0019724             JUNCTION     0.011    0.011     0  02:20      0.0109      0.0109      -0.158
  R0021433             JUNCTION     0.055    0.055     0  02:20      0.0605      0.0605      -0.190
  R0021435             JUNCTION     0.035    0.084     0  02:20      0.0375      0.0981       0.075
  R0019769             OUTFALL      0.000    1.377     0  02:21           0        1.73       0.000
  
  
  **********************
  Node Surcharge Summary
  **********************
  
  Surcharging occurs when water rises above the top of the highest conduit.
  ---------------------------------------------------------------------
                                               Max. Height   Min. Depth
                                   Hours       Above Crown    Below Rim
  Node                 Type      Surcharged         Meters       Meters
  ---------------------------------------------------------------------
  R0019466             JUNCTION        0.14          0.362        2.148
  R0019468             JUNCTION        0.14          0.284        2.146
  R0019831             JUNCTION        0.05          0.433        0.927
  R0019825             JUNCTION        0.10          0.646        0.554
  R0019345             JUNCTION        0.05          0.093        1.657
  R0019373             JUNCTION        0.06          0.144        2.356
  R0019254             JUNCTION        0.08          0.363        1.467
  R0013935             JUNCTION        0.06          0.269        1.051
  R0019939             JUNCTION        0.15          0.449        1.171
  R0019849             JUNCTION        0.17          0.421        1.509
  R0021442             JUNCTION        0.22          1.245        0.505
  R0019247             JUNCTION        0.07          0.255        1.605
  R0019252             JUNCTION        0.05          0.373        1.267
  R0019942             JUNCTION        0.12          0.397        1.253
  R0021433             JUNCTION        0.11          1.287        0.563
  R0021435             JUNCTION        0.16          1.372        0.438
  
  
  *********************
  Node Flooding Summary
  *********************
  
  No nodes were flooded.
  
  
  ***********************
  Outfall Loading Summary
  ***********************
  
  -----------------------------------------------------------
                         Flow       Avg       Max       Total
                         Freq      Flow      Flow      Volume
  Outfall Node           Pcnt       CMS       CMS    10^6 ltr
  -----------------------------------------------------------
  R0019769              17.06     0.037     1.377       1.728
  -----------------------------------------------------------
  System                17.06     0.037     1.377       1.728
  
  
  ********************
  Link Flow Summary
  ********************
  
  -----------------------------------------------------------------------------
                                 Maximum  Time of Max   Maximum    Max/    Max/
                                  |Flow|   Occurrence   |Veloc|    Full    Full
  Link                 Type          CMS  days hr:min     m/sec    Flow   Depth
  -----------------------------------------------------------------------------
  H0014431             CONDUIT     0.068     0  02:20      0.96    1.26    1.00
  H0014433             CONDUIT     0.047     0  02:20      0.70    0.60    1.00
  H0014352             CONDUIT     1.351     0  02:21      3.04    0.55    0.67
  H0014373             CONDUIT     1.360     0  02:21      3.96    0.63    0.54
  H0017981             CONDUIT     0.095     0  02:20      1.34    2.69    1.00
  H0017755             CONDUIT     0.174     0  02:20      1.45    1.41    0.91
  H0017791             CONDUIT     0.113     0  02:20      0.61    0.16    0.35
  H0017357             CONDUIT     0.047     0  02:20      0.67    0.76    1.00
  H0018216             CONDUIT     0.095     0  02:20      1.34    1.73    1.00
  H0016792             CONDUIT     0.795     0  02:20      1.98    0.46    0.61
  H0019507             CONDUIT     0.042     0  02:20      0.64    0.58    1.00
  H0019998             CONDUIT     0.996     0  02:21      3.26    0.40    0.49
  H0019576             CONDUIT     0.839     0  02:21      2.34    0.56    0.55
  H0020087             CONDUIT     0.006     0  02:21      0.15    0.03    0.45
  H0020211             CONDUIT     0.803     0  02:21      1.95    2.00    0.63
  H0018982             CONDUIT     0.164     0  02:20      0.77    0.26    0.40
  H0018753             CONDUIT     0.035     0  02:23      0.58    0.50    1.00
  H0018845             CONDUIT     0.000     0  00:00      0.00    0.00    0.00
  H0018863             CONDUIT     0.057     0  02:20      0.81    1.34    1.00
  H0019156             CONDUIT     0.000     0  00:00      0.00    0.00    0.00
  H0018929             CONDUIT     0.410     0  02:20      1.27    0.36    0.51
  H0018440             CONDUIT     0.144     0  02:20      2.04    2.58    1.00
  H0018456             CONDUIT     0.159     0  02:20      1.46    0.96    0.81
  H0018968             CONDUIT     1.368     0  02:21      4.54    0.53    0.48
  H0022036             CONDUIT     0.040     0  02:20      0.53    0.03    0.20
  H0021806             CONDUIT     0.174     0  02:20      1.39    1.55    1.00
  H0022111             CONDUIT     0.088     0  02:20      0.82    0.63    0.54
  H0021440             CONDUIT     0.740     0  02:20      2.35    0.48    0.50
  H0021704             CONDUIT     0.461     0  02:21      1.48    0.88    0.50
  H0020521             CONDUIT     0.051     0  02:20      0.72    1.04    1.00
  H0020755             CONDUIT     0.058     0  02:20      0.62    0.64    0.75
  H0020530             CONDUIT     1.401     0  02:21      3.04    1.20    0.68
  H0020618             CONDUIT     0.968     0  02:21      3.05    0.60    0.50
  H0021163             CONDUIT     0.094     0  02:20      1.33    1.57    1.00
  H0020497             CONDUIT     0.000     0  00:00      0.00    0.00    0.81
  H0024325             CONDUIT     0.176     0  02:20      1.84    0.52    0.49
  H0023585             CONDUIT     0.365     0  02:20      2.49    0.84    0.70
  H0024098             CONDUIT     0.149     0  02:20      2.10    1.74    1.00
  H0024235             CONDUIT     0.188     0  02:20      1.45    0.77    0.63
  H0024282             CONDUIT     0.000     0  00:00      0.00    0.00    0.00
  H0024308             CONDUIT     1.377     0  02:21      5.08    0.40    0.44
  H0024498             CONDUIT     0.106     0  02:20      1.50    1.64    1.00
  H0026990             CONDUIT     0.048     0  02:20      0.69    0.36    0.56
  H0041650             CONDUIT     0.224     0  02:20      0.82    0.26    0.45
  H0041011             CONDUIT     0.093     0  02:20      1.32    0.92    1.00
  H0045103             CONDUIT     0.174     0  02:21      0.75    0.22    0.43
  H0045104             CONDUIT     1.360     0  02:21      4.23    0.48    0.51
  H0045105             CONDUIT     0.011     0  02:20      0.38    0.19    0.44
  H0045106             CONDUIT     0.281     0  02:20      2.37    0.38    0.58
  H0045107             CONDUIT     0.050     0  02:20      0.70    0.82    1.00
  H0045108             CONDUIT     0.083     0  02:20      1.17    1.49    1.00
  
  
  ***************************
  Flow Classification Summary
  ***************************
  
  -------------------------------------------------------------------------------------
                      Adjusted    ---------- Fraction of Time in Flow Class ---------- 
                       /Actual         Up    Down  Sub   Sup   Up    Down  Norm  Inlet 
  Conduit               Length    Dry  Dry   Dry   Crit  Crit  Crit  Crit  Ltd   Ctrl  
  -------------------------------------------------------------------------------------
  H0014431                1.00   0.03  0.00  0.00  0.97  0.00  0.00  0.00  0.96  0.00
  H0014433                1.00   0.03  0.00  0.00  0.97  0.00  0.00  0.00  0.97  0.00
  H0014352                1.00   0.03  0.00  0.00  0.87  0.10  0.00  0.00  0.97  0.00
  H0014373                1.00   0.03  0.00  0.00  0.82  0.15  0.00  0.00  0.78  0.00
  H0017981                1.00   0.03  0.00  0.00  0.00  0.00  0.00  0.97  0.00  0.00
  H0017755                1.00   0.03  0.00  0.00  0.00  0.00  0.00  0.97  0.00  0.00
  H0017791                1.00   0.03  0.00  0.00  0.97  0.00  0.00  0.00  0.97  0.00
  H0017357                1.00   0.03  0.97  0.00  0.00  0.00  0.00  0.00  0.97  0.00
  H0018216                1.00   0.03  0.80  0.00  0.17  0.00  0.00  0.00  0.96  0.00
  H0016792                1.00   0.03  0.79  0.00  0.18  0.00  0.00  0.00  0.97  0.00
  H0019507                1.00   0.03  0.00  0.00  0.97  0.00  0.00  0.00  0.97  0.00
  H0019998                1.00   0.03  0.00  0.00  0.82  0.15  0.00  0.00  0.19  0.00
  H0019576                1.00   0.03  0.00  0.00  0.90  0.07  0.00  0.00  0.18  0.00
  H0020087                1.00   0.03  0.95  0.00  0.02  0.00  0.00  0.00  0.97  0.00
  H0020211                1.00   0.03  0.00  0.00  0.97  0.00  0.00  0.00  0.78  0.00
  H0018982                1.00   0.03  0.00  0.00  0.97  0.00  0.00  0.00  0.84  0.00
  H0018753                1.00   0.03  0.00  0.00  0.97  0.00  0.00  0.00  0.97  0.00
  H0018845                1.00   1.00  0.00  0.00  0.00  0.00  0.00  0.00  0.00  0.00
  H0018863                1.00   0.03  0.00  0.00  0.97  0.00  0.00  0.00  0.96  0.00
  H0019156                1.00   1.00  0.00  0.00  0.00  0.00  0.00  0.00  0.00  0.00
  H0018929                1.00   0.03  0.80  0.00  0.18  0.00  0.00  0.00  0.97  0.00
  H0018440                1.00   0.03  0.00  0.00  0.97  0.00  0.00  0.00  0.96  0.00
  H0018456                1.00   0.03  0.00  0.00  0.97  0.00  0.00  0.00  0.97  0.00
  H0018968                1.00   0.03  0.00  0.00  0.81  0.17  0.00  0.00  0.82  0.00
  H0022036                1.00   0.03  0.00  0.00  0.02  0.01  0.00  0.94  0.02  0.00
  H0021806                1.00   0.03  0.80  0.00  0.17  0.00  0.00  0.00  0.92  0.00
  H0022111                1.00   0.03  0.00  0.00  0.97  0.00  0.00  0.00  0.01  0.00
  H0021440                1.00   0.03  0.00  0.00  0.87  0.10  0.00  0.00  0.06  0.00
  H0021704                1.00   0.03  0.00  0.00  0.00  0.00  0.00  0.97  0.00  0.00
  H0020521                1.00   0.03  0.00  0.00  0.97  0.00  0.00  0.00  0.97  0.00
  H0020755                1.00   0.03  0.82  0.00  0.16  0.00  0.00  0.00  0.96  0.00
  H0020530                1.00   0.03  0.00  0.00  0.88  0.09  0.00  0.00  0.01  0.00
  H0020618                1.00   0.03  0.00  0.00  0.85  0.13  0.00  0.00  0.80  0.00
  H0021163                1.00   0.03  0.00  0.00  0.96  0.01  0.00  0.00  0.83  0.00
  H0020497                1.20   0.03  0.97  0.00  0.00  0.00  0.00  0.00  0.00  0.00
  H0024325                1.00   0.03  0.00  0.00  0.87  0.11  0.00  0.00  0.83  0.00
  H0023585                1.00   0.03  0.00  0.00  0.00  0.00  0.00  0.97  0.00  0.00
  H0024098                1.00   0.03  0.80  0.00  0.17  0.00  0.00  0.00  0.96  0.00
  H0024235                1.00   0.03  0.00  0.00  0.00  0.00  0.00  0.97  0.00  0.00
  H0024282                1.00   1.00  0.00  0.00  0.00  0.00  0.00  0.00  0.00  0.00
  H0024308                1.00   0.03  0.00  0.00  0.78  0.19  0.00  0.00  0.06  0.00
  H0024498                1.00   0.03  0.00  0.00  0.00  0.00  0.00  0.97  0.00  0.00
  H0026990                1.00   0.03  0.00  0.00  0.97  0.00  0.00  0.00  0.97  0.00
  H0041650                1.00   0.82  0.02  0.00  0.15  0.00  0.00  0.00  0.96  0.00
  H0041011                1.00   0.03  0.00  0.00  0.97  0.00  0.00  0.00  0.96  0.00
  H0045103                1.00   0.03  0.00  0.00  0.97  0.00  0.00  0.00  0.89  0.00
  H0045104                1.00   0.03  0.00  0.00  0.80  0.17  0.00  0.00  0.18  0.00
  H0045105                1.00   0.03  0.00  0.00  0.97  0.00  0.00  0.00  0.97  0.00
  H0045106                1.00   0.03  0.00  0.00  0.86  0.12  0.00  0.00  0.97  0.00
  H0045107                1.00   0.03  0.00  0.00  0.97  0.00  0.00  0.00  0.97  0.00
  H0045108                1.00   0.03  0.00  0.00  0.97  0.00  0.00  0.00  0.97  0.00
  
  
  *************************
  Conduit Surcharge Summary
  *************************
  
  ----------------------------------------------------------------------------
                                                           Hours        Hours 
                         --------- Hours Full --------   Above Full   Capacity
  Conduit                Both Ends  Upstream  Dnstream   Normal Flow   Limited
  ----------------------------------------------------------------------------
  H0014431                    0.14      0.14      0.14      0.20         0.14
  H0014433                    0.05      0.05      0.10      0.01         0.01
  H0017981                    0.01      0.05      0.01      0.24         0.02
  H0017755                    0.01      0.01      0.01      0.09         0.01
  H0017357                    0.01      0.01      0.06      0.01         0.01
  H0018216                    0.05      0.08      0.05      0.11         0.07
  H0019507                    0.06      0.06      0.15      0.01         0.01
  H0020211                    0.01      0.01      0.01      0.17         0.01
  H0018753                    0.06      0.06      0.14      0.01         0.01
  H0018863                    0.15      0.15      0.17      0.05         0.05
  H0018440                    0.12      0.22      0.12      0.26         0.18
  H0021806                    0.01      0.07      0.01      0.10         0.05
  H0020521                    0.05      0.05      0.08      0.01         0.01
  H0020530                    0.01      0.01      0.01      0.05         0.01
  H0021163                    0.10      0.10      0.12      0.10         0.09
  H0024098                    0.17      0.17      0.23      0.12         0.11
  H0024498                    0.01      0.14      0.01      0.23         0.09
  H0041011                    0.12      0.12      0.17      0.01         0.01
  H0045107                    0.11      0.11      0.16      0.01         0.01
  H0045108                    0.16      0.16      0.22      0.09         0.09
  

  Analysis begun on:  Fri Mar 22 15:55:27 2024
  Analysis ended on:  Fri Mar 22 15:55:37 2024
  Total elapsed time: 00:00:10