
  EPA STORM WATER MANAGEMENT MODEL - VERSION 5.2 (Build 5.2.4)
  PYSWMM TOOLKIT API - VERSION v1.0 (2023-11-27)
  ------------------------------------------------------------

  Gievenbeck_2017-07-12 00 05 00_hN22 32 
  
  ****************
  Analysis Options
  ****************
  Flow Units ............... CMS
  Process Models:
    Rainfall/Runoff ........ YES
    RDII ................... NO
    Snowmelt ............... NO
    Groundwater ............ NO
    Flow Routing ........... YES
    Ponding Allowed ........ NO
    Water Quality .......... NO
  Infiltration Method ...... HORTON
  Flow Routing Method ...... DYNWAVE
  Surcharge Method ......... SLOT
  Starting Date ............ 01/01/2024 00:00:00
  Ending Date .............. 01/04/2024 04:00:00
  Antecedent Dry Days ...... 14.0
  Report Time Step ......... 00:01:00
  Wet Time Step ............ 00:01:00
  Dry Time Step ............ 00:01:00
  Routing Time Step ........ 1.00 sec
  Variable Time Step ....... YES
  Maximum Trials ........... 8
  Number of Threads ........ 1
  Head Tolerance ........... 0.001500 m
  
  
  **************************        Volume         Depth
  Runoff Quantity Continuity     hectare-m            mm
  **************************     ---------       -------
  Total Precipitation ......         0.226        22.320
  Evaporation Loss .........         0.011         1.062
  Infiltration Loss ........         0.128        12.615
  Surface Runoff ...........         0.088         8.645
  Final Storage ............         0.000         0.000
  Continuity Error (%) .....        -0.007
  
  
  **************************        Volume        Volume
  Flow Routing Continuity        hectare-m      10^6 ltr
  **************************     ---------     ---------
  Dry Weather Inflow .......         0.000         0.000
  Wet Weather Inflow .......         0.088         0.875
  Groundwater Inflow .......         0.000         0.000
  RDII Inflow ..............         0.000         0.000
  External Inflow ..........         0.000         0.000
  External Outflow .........         0.087         0.875
  Flooding Loss ............         0.000         0.000
  Evaporation Loss .........         0.000         0.000
  Exfiltration Loss ........         0.000         0.000
  Initial Stored Volume ....         0.000         0.000
  Final Stored Volume ......         0.000         0.000
  Continuity Error (%) .....         0.008
  
  
  ***************************
  Time-Step Critical Elements
  ***************************
  None
  
  
  ********************************
  Highest Flow Instability Indexes
  ********************************
  All links are stable.
  
  
  *********************************
  Most Frequent Nonconverging Nodes
  *********************************
  Convergence obtained at all time steps.
  
  
  *************************
  Routing Time Step Summary
  *************************
  Minimum Time Step           :     0.50 sec
  Average Time Step           :     1.00 sec
  Maximum Time Step           :     1.00 sec
  % of Time in Steady State   :     0.00
  Average Iterations per Step :     2.00
  % of Steps Not Converging   :     0.00
  Time Step Frequencies       :
      1.000 -  0.871 sec      :   100.00 %
      0.871 -  0.758 sec      :     0.00 %
      0.758 -  0.660 sec      :     0.00 %
      0.660 -  0.574 sec      :     0.00 %
      0.574 -  0.500 sec      :     0.00 %
  
  
  ***************************
  Subcatchment Runoff Summary
  ***************************
  
  ------------------------------------------------------------------------------------------------------------------------------
                            Total      Total      Total      Total     Imperv       Perv      Total       Total     Peak  Runoff
                           Precip      Runon       Evap      Infil     Runoff     Runoff     Runoff      Runoff   Runoff   Coeff
  Subcatchment                 mm         mm         mm         mm         mm         mm         mm    10^6 ltr      CMS
  ------------------------------------------------------------------------------------------------------------------------------
  EZG_368                   22.32       0.00       1.06      12.68      10.11       0.00       8.59        0.04     0.00   0.385
  EZG_392                   22.32       0.00       1.05      12.68      10.11       0.00       8.59        0.03     0.00   0.385
  EZG_352                   22.32       0.00       1.06      12.68      10.10       0.00       8.59        0.05     0.00   0.385
  EZG_372                   22.32       0.00       1.04      12.68      10.12       0.00       8.60        0.01     0.00   0.385
  EZG_416                   22.32       0.00       1.05      12.68      10.11       0.00       8.59        0.03     0.00   0.385
  EZG_388                   22.32       0.00       1.06      12.68      10.10       0.00       8.59        0.04     0.00   0.385
  EZG_394                   22.32       0.00       1.05      12.68      10.11       0.00       8.59        0.02     0.00   0.385
  EZG_400                   22.32       0.00       1.05      12.68      10.11       0.00       8.60        0.02     0.00   0.385
  EZG_390                   22.32       0.00       1.05      12.68      10.11       0.00       8.59        0.03     0.00   0.385
  EZG_350                   22.32       0.00       1.06      12.68      10.10       0.00       8.59        0.04     0.00   0.385
  EZG_370                   22.32       0.00       1.05      12.68      10.11       0.00       8.59        0.03     0.00   0.385
  EZG_398                   22.32       0.00       1.04      12.68      10.12       0.00       8.60        0.01     0.00   0.386
  EZG_382                   22.32       0.00       1.04      12.68      10.12       0.00       8.61        0.01     0.00   0.386
  EZG_374                   22.32       0.00       1.27      10.75      12.12       0.00      10.30        0.04     0.00   0.462
  EZG_412                   22.32       0.00       1.03      12.68      10.13       0.00       8.61        0.00     0.00   0.386
  EZG_344                   22.32       0.00       1.05      12.68      10.11       0.00       8.60        0.02     0.00   0.385
  EZG_376                   22.32       0.00       1.05      12.68      10.12       0.00       8.60        0.02     0.00   0.385
  EZG_356                   22.32       0.00       1.06      12.67      10.10       0.00       8.58        0.06     0.01   0.385
  EZG_386                   22.32       0.00       1.07      12.67      10.10       0.00       8.58        0.07     0.01   0.384
  EZG_380                   22.32       0.00       1.05      12.68      10.11       0.00       8.59        0.03     0.00   0.385
  EZG_378                   22.32       0.00       1.05      12.68      10.11       0.00       8.59        0.03     0.00   0.385
  EZG_414                   22.32       0.00       1.04      12.68      10.12       0.00       8.61        0.01     0.00   0.386
  EZG_402                   22.32       0.00       1.05      12.68      10.11       0.00       8.59        0.03     0.00   0.385
  EZG_358                   22.32       0.00       1.06      12.67      10.10       0.00       8.58        0.05     0.01   0.385
  EZG_364                   22.32       0.00       1.06      12.67      10.10       0.00       8.58        0.05     0.01   0.385
  EZG_410                   22.32       0.00       1.05      12.68      10.12       0.00       8.60        0.02     0.00   0.385
  EZG_366                   22.32       0.00       1.05      12.68      10.11       0.00       8.60        0.02     0.00   0.385
  EZG_18259                 22.32       0.00       1.05      12.68      10.11       0.00       8.60        0.02     0.00   0.385
  EZG_18258                 22.32       0.00       1.04      12.68      10.13       0.00       8.61        0.01     0.00   0.386
  EZG_346                   22.32       0.00       1.03      12.87       9.91       0.00       8.42        0.03     0.00   0.377
  EZG_348                   22.32       0.00       1.03      12.87       9.91       0.00       8.43        0.02     0.00   0.377
  
  
  ******************
  Node Depth Summary
  ******************
  
  ---------------------------------------------------------------------------------
                                 Average  Maximum  Maximum  Time of Max    Reported
                                   Depth    Depth      HGL   Occurrence   Max Depth
  Node                 Type       Meters   Meters   Meters  days hr:min      Meters
  ---------------------------------------------------------------------------------
  R0019466             JUNCTION     0.00     0.07    69.52     0  12:30        0.07
  R0019468             JUNCTION     0.01     0.07    69.38     0  12:31        0.07
  R0019831             JUNCTION     0.00     0.04    69.21     0  12:30        0.04
  R0019825             JUNCTION     0.00     0.06    68.90     0  12:30        0.06
  R0019843             JUNCTION     0.01     0.11    67.74     0  12:33        0.11
  R0019368             JUNCTION     0.01     0.15    66.94     0  12:33        0.15
  R0019369             JUNCTION     0.01     0.12    66.71     0  12:34        0.12
  R0019370             JUNCTION     0.01     0.10    66.00     0  12:34        0.10
  R0019345             JUNCTION     0.01     0.07    69.97     0  12:31        0.07
  R0019346             JUNCTION     0.00     0.06    69.86     0  12:32        0.06
  R0043600             JUNCTION     0.01     0.07    69.74     0  12:33        0.07
  R0019203             JUNCTION     0.01     0.08    69.62     0  12:33        0.08
  R0043594             JUNCTION     0.00     0.06    69.79     0  12:30        0.06
  R0021458             JUNCTION     0.01     0.08    69.73     0  12:31        0.08
  R0019202             JUNCTION     0.01     0.07    69.65     0  12:32        0.07
  R0019373             JUNCTION     0.00     0.04    69.71     0  12:30        0.04
  R0019254             JUNCTION     0.00     0.06    70.10     0  12:30        0.06
  R0019716             JUNCTION     0.01     0.10    69.11     0  12:33        0.10
  R0019946             JUNCTION     0.01     0.17    68.79     0  12:34        0.17
  R0013935             JUNCTION     0.00     0.04    68.87     0  12:30        0.04
  R0019939             JUNCTION     0.00     0.05    68.62     0  12:30        0.05
  R0019944             JUNCTION     0.01     0.09    68.37     0  12:34        0.09
  R0043703             JUNCTION     0.01     0.11    68.71     0  12:34        0.11
  R0019945             JUNCTION     0.01     0.11    68.51     0  12:34        0.11
  R0039621             JUNCTION     0.00     0.00    69.57     0  00:00        0.00
  R0019838             JUNCTION     0.00     0.07    69.53     0  12:30        0.07
  R0039606             JUNCTION     0.01     0.07    69.66     0  12:32        0.07
  R0019204             JUNCTION     0.00     0.00    69.91     0  00:00        0.00
  R0019205             JUNCTION     0.00     0.00    69.62     0  00:00        0.00
  R0019849             JUNCTION     0.00     0.06    68.58     0  12:31        0.06
  R0019371             JUNCTION     0.00     0.00    70.41     0  00:00        0.00
  R0019718             JUNCTION     0.01     0.13    69.55     0  12:34        0.13
  R0021442             JUNCTION     0.01     0.08    70.13     0  12:31        0.08
  R0019247             JUNCTION     0.01     0.08    69.96     0  12:31        0.08
  R0019719             JUNCTION     0.01     0.07    69.75     0  12:32        0.07
  R0019767             JUNCTION     0.01     0.11    64.84     0  12:34        0.11
  R0019768             JUNCTION     0.01     0.09    63.86     0  12:34        0.09
  R0021453             JUNCTION     0.00     0.03    69.98     0  12:30        0.03
  R0019839             JUNCTION     0.00     0.06    69.45     0  12:30        0.06
  R0019717             JUNCTION     0.01     0.10    69.44     0  12:33        0.10
  R0019252             JUNCTION     0.00     0.05    70.24     0  12:30        0.05
  R0019721             JUNCTION     0.00     0.05    69.92     0  12:31        0.05
  R0019942             JUNCTION     0.00     0.05    68.70     0  12:31        0.05
  R0019206             JUNCTION     0.00     0.00    69.07     0  00:00        0.00
  R0019840             JUNCTION     0.00     0.05    69.02     0  12:31        0.05
  R0043702             JUNCTION     0.01     0.08    68.78     0  12:31        0.08
  R0019723             JUNCTION     0.00     0.04    70.12     0  12:30        0.04
  R0019724             JUNCTION     0.00     0.02    70.18     0  12:30        0.02
  R0021433             JUNCTION     0.00     0.04    70.43     0  12:30        0.04
  R0021435             JUNCTION     0.00     0.06    70.24     0  12:30        0.06
  R0019769             OUTFALL      0.01     0.09    63.47     0  12:34        0.09
  
  
  *******************
  Node Inflow Summary
  *******************
  
  -------------------------------------------------------------------------------------------------
                                  Maximum  Maximum                  Lateral       Total        Flow
                                  Lateral    Total  Time of Max      Inflow      Inflow     Balance
                                   Inflow   Inflow   Occurrence      Volume      Volume       Error
  Node                 Type           CMS      CMS  days hr:min    10^6 ltr    10^6 ltr     Percent
  -------------------------------------------------------------------------------------------------
  R0019466             JUNCTION     0.003    0.006     0  12:30      0.0355      0.0663      -0.012
  R0019468             JUNCTION     0.002    0.008     0  12:30      0.0206      0.0869       0.014
  R0019831             JUNCTION     0.003    0.003     0  12:30      0.0278      0.0278      -0.033
  R0019825             JUNCTION     0.003    0.005     0  12:30      0.0279      0.0558       0.000
  R0019843             JUNCTION     0.000    0.074     0  12:32           0       0.875      -0.004
  R0019368             JUNCTION     0.000    0.074     0  12:33           0       0.875       0.000
  R0019369             JUNCTION     0.000    0.074     0  12:33           0       0.875       0.001
  R0019370             JUNCTION     0.000    0.074     0  12:34           0       0.875       0.001
  R0019345             JUNCTION     0.000    0.005     0  12:30           0      0.0545       0.040
  R0019346             JUNCTION     0.000    0.008     0  12:31     0.00344      0.0911       0.012
  R0043600             JUNCTION     0.000    0.010     0  12:32           0       0.106       0.044
  R0019203             JUNCTION     0.001    0.021     0  12:32     0.00761       0.237      -0.011
  R0043594             JUNCTION     0.005    0.007     0  12:30      0.0507      0.0724       0.001
  R0021458             JUNCTION     0.004    0.010     0  12:30      0.0394       0.112      -0.012
  R0019202             JUNCTION     0.001    0.011     0  12:32      0.0116       0.123      -0.005
  R0019373             JUNCTION     0.003    0.003     0  12:30      0.0308      0.0308      -0.017
  R0019254             JUNCTION     0.002    0.005     0  12:30       0.025      0.0545      -0.020
  R0019716             JUNCTION     0.004    0.041     0  12:33      0.0391       0.487      -0.010
  R0019946             JUNCTION     0.000    0.041     0  12:33           0       0.487       0.012
  R0013935             JUNCTION     0.002    0.002     0  12:30      0.0238      0.0238      -0.034
  R0019939             JUNCTION     0.001    0.003     0  12:30     0.00852      0.0324      -0.005
  R0019944             JUNCTION     0.002    0.052     0  12:33      0.0221       0.624       0.001
  R0043703             JUNCTION     0.003    0.043     0  12:34      0.0272       0.514       0.000
  R0019945             JUNCTION     0.000    0.051     0  12:33           0       0.602       0.001
  R0039621             JUNCTION     0.000    0.000     0  00:00           0           0       0.000 ltr
  R0019838             JUNCTION     0.005    0.005     0  12:30       0.055       0.055      -0.001
  R0039606             JUNCTION     0.000    0.010     0  12:32           0       0.112       0.046
  R0019204             JUNCTION     0.000    0.000     0  00:00           0           0       0.000 ltr
  R0019205             JUNCTION     0.000    0.000     0  00:00           0           0       0.000 ltr
  R0019849             JUNCTION     0.000    0.008     0  12:31           0      0.0881       0.000
  R0019371             JUNCTION     0.000    0.000     0  00:00           0           0       0.000 ltr
  R0019718             JUNCTION     0.003    0.024     0  12:33      0.0334        0.27       0.011
  R0021442             JUNCTION     0.004    0.008     0  12:30      0.0391      0.0884      -0.010
  R0019247             JUNCTION     0.002    0.010     0  12:30      0.0171       0.106      -0.032
  R0019719             JUNCTION     0.002    0.010     0  12:31      0.0181       0.109      -0.000
  R0019767             JUNCTION     0.000    0.074     0  12:34           0       0.875       0.000
  R0019768             JUNCTION     0.000    0.074     0  12:34           0       0.875       0.003
  R0021453             JUNCTION     0.002    0.002     0  12:30      0.0217      0.0217       0.121
  R0019839             JUNCTION     0.005    0.010     0  12:30      0.0543       0.109      -0.009
  R0019717             JUNCTION     0.006    0.038     0  12:33      0.0685       0.448      -0.000
  R0019252             JUNCTION     0.003    0.003     0  12:30      0.0294      0.0294      -0.036
  R0019721             JUNCTION     0.001    0.003     0  12:30     0.00749      0.0332       0.007
  R0019942             JUNCTION     0.000    0.005     0  12:30           0      0.0558       0.014
  R0019206             JUNCTION     0.000    0.000     0  00:00           0           0       0.000 ltr
  R0019840             JUNCTION     0.000    0.018     0  12:31           0       0.196       0.005
  R0043702             JUNCTION     0.005    0.022     0  12:31      0.0544       0.251      -0.001
  R0019723             JUNCTION     0.002    0.003     0  12:30      0.0204      0.0257      -0.045
  R0019724             JUNCTION     0.001    0.001     0  12:30     0.00527     0.00527      -0.033
  R0021433             JUNCTION     0.003    0.003     0  12:30      0.0306      0.0306      -0.033
  R0021435             JUNCTION     0.002    0.005     0  12:30      0.0187      0.0494       0.014
  R0019769             OUTFALL      0.000    0.074     0  12:34           0       0.875       0.000
  
  
  **********************
  Node Surcharge Summary
  **********************
  
  No nodes were surcharged.
  
  
  *********************
  Node Flooding Summary
  *********************
  
  No nodes were flooded.
  
  
  ***********************
  Outfall Loading Summary
  ***********************
  
  -----------------------------------------------------------
                         Flow       Avg       Max       Total
                         Freq      Flow      Flow      Volume
  Outfall Node           Pcnt       CMS       CMS    10^6 ltr
  -----------------------------------------------------------
  R0019769              17.45     0.018     0.074       0.875
  -----------------------------------------------------------
  System                17.45     0.018     0.074       0.875
  
  
  ********************
  Link Flow Summary
  ********************
  
  -----------------------------------------------------------------------------
                                 Maximum  Time of Max   Maximum    Max/    Max/
                                  |Flow|   Occurrence   |Veloc|    Full    Full
  Link                 Type          CMS  days hr:min     m/sec    Flow   Depth
  -----------------------------------------------------------------------------
  H0014431             CONDUIT     0.006     0  12:30      0.49    0.11    0.23
  H0014433             CONDUIT     0.003     0  12:30      0.35    0.03    0.17
  H0014352             CONDUIT     0.074     0  12:33      1.29    0.03    0.15
  H0014373             CONDUIT     0.074     0  12:34      1.71    0.03    0.12
  H0017981             CONDUIT     0.005     0  12:32      0.46    0.14    0.21
  H0017755             CONDUIT     0.009     0  12:33      0.63    0.08    0.18
  H0017791             CONDUIT     0.007     0  12:30      0.28    0.01    0.08
  H0017357             CONDUIT     0.000     0  00:00      0.00    0.00    0.07
  H0018216             CONDUIT     0.005     0  12:30      0.43    0.09    0.23
  H0016792             CONDUIT     0.041     0  12:33      0.71    0.02    0.15
  H0019507             CONDUIT     0.002     0  12:30      0.34    0.03    0.15
  H0019998             CONDUIT     0.052     0  12:34      1.38    0.02    0.11
  H0019576             CONDUIT     0.043     0  12:34      1.01    0.03    0.12
  H0020087             CONDUIT     0.000     0  00:00      0.00    0.00    0.07
  H0020211             CONDUIT     0.041     0  12:34      0.68    0.10    0.15
  H0018982             CONDUIT     0.010     0  12:32      0.38    0.02    0.09
  H0018753             CONDUIT     0.003     0  12:30      0.33    0.04    0.18
  H0018845             CONDUIT     0.000     0  00:00      0.00    0.00    0.00
  H0018863             CONDUIT     0.003     0  12:30      0.32    0.07    0.20
  H0019156             CONDUIT     0.000     0  00:00      0.00    0.00    0.00
  H0018929             CONDUIT     0.021     0  12:33      0.49    0.02    0.12
  H0018440             CONDUIT     0.008     0  12:31      0.55    0.14    0.26
  H0018456             CONDUIT     0.008     0  12:32      0.63    0.05    0.16
  H0018968             CONDUIT     0.074     0  12:34      1.93    0.03    0.11
  H0022036             CONDUIT     0.002     0  12:30      0.43    0.00    0.03
  H0021806             CONDUIT     0.010     0  12:32      0.56    0.08    0.19
  H0022111             CONDUIT     0.005     0  12:30      0.34    0.04    0.13
  H0021440             CONDUIT     0.038     0  12:33      1.04    0.02    0.11
  H0021704             CONDUIT     0.023     0  12:34      0.54    0.04    0.12
  H0020521             CONDUIT     0.003     0  12:30      0.32    0.06    0.18
  H0020755             CONDUIT     0.003     0  12:31      0.29    0.03    0.14
  H0020530             CONDUIT     0.074     0  12:33      1.23    0.06    0.15
  H0020618             CONDUIT     0.051     0  12:34      1.31    0.03    0.11
  H0021163             CONDUIT     0.005     0  12:30      0.61    0.09    0.18
  H0020497             CONDUIT     0.000     0  00:00      0.00    0.00    0.18
  H0024325             CONDUIT     0.010     0  12:31      0.81    0.03    0.11
  H0023585             CONDUIT     0.022     0  12:31      1.16    0.05    0.15
  H0024098             CONDUIT     0.008     0  12:31      0.59    0.10    0.29
  H0024235             CONDUIT     0.010     0  12:32      0.63    0.04    0.13
  H0024282             CONDUIT     0.000     0  00:00      0.00    0.00    0.00
  H0024308             CONDUIT     0.074     0  12:34      2.18    0.02    0.10
  H0024498             CONDUIT     0.008     0  12:31      0.64    0.12    0.23
  H0026990             CONDUIT     0.003     0  12:30      0.33    0.02    0.11
  H0041650             CONDUIT     0.011     0  12:32      0.41    0.01    0.09
  H0041011             CONDUIT     0.005     0  12:31      0.59    0.05    0.18
  H0045103             CONDUIT     0.010     0  12:32      0.43    0.01    0.08
  H0045104             CONDUIT     0.074     0  12:34      1.82    0.03    0.11
  H0045105             CONDUIT     0.001     0  12:30      0.17    0.01    0.10
  H0045106             CONDUIT     0.018     0  12:31      1.18    0.02    0.13
  H0045107             CONDUIT     0.003     0  12:30      0.36    0.05    0.17
  H0045108             CONDUIT     0.005     0  12:30      0.39    0.08    0.23
  
  
  ***************************
  Flow Classification Summary
  ***************************
  
  -------------------------------------------------------------------------------------
                      Adjusted    ---------- Fraction of Time in Flow Class ---------- 
                       /Actual         Up    Down  Sub   Sup   Up    Down  Norm  Inlet 
  Conduit               Length    Dry  Dry   Dry   Crit  Crit  Crit  Crit  Ltd   Ctrl  
  -------------------------------------------------------------------------------------
  H0014431                1.00   0.06  0.00  0.00  0.94  0.00  0.00  0.00  0.93  0.00
  H0014433                1.00   0.06  0.00  0.00  0.94  0.00  0.00  0.00  0.93  0.00
  H0014352                1.00   0.06  0.00  0.00  0.80  0.14  0.00  0.00  0.93  0.00
  H0014373                1.00   0.07  0.00  0.00  0.77  0.17  0.00  0.00  0.75  0.00
  H0017981                1.00   0.07  0.00  0.00  0.00  0.00  0.00  0.93  0.00  0.00
  H0017755                1.00   0.07  0.00  0.00  0.00  0.00  0.00  0.93  0.00  0.00
  H0017791                1.00   0.06  0.00  0.00  0.94  0.00  0.00  0.00  0.93  0.00
  H0017357                1.00   0.06  0.94  0.00  0.00  0.00  0.00  0.00  0.00  0.00
  H0018216                1.00   0.06  0.76  0.00  0.18  0.00  0.00  0.00  0.93  0.00
  H0016792                1.00   0.06  0.75  0.00  0.18  0.00  0.00  0.00  0.93  0.00
  H0019507                1.00   0.06  0.00  0.00  0.94  0.00  0.00  0.00  0.93  0.00
  H0019998                1.00   0.06  0.00  0.00  0.77  0.17  0.00  0.00  0.18  0.00
  H0019576                1.00   0.06  0.00  0.00  0.84  0.10  0.00  0.00  0.18  0.00
  H0020087                1.00   0.06  0.94  0.00  0.00  0.00  0.00  0.00  0.00  0.00
  H0020211                1.00   0.06  0.00  0.00  0.94  0.00  0.00  0.00  0.75  0.00
  H0018982                1.00   0.06  0.00  0.00  0.94  0.00  0.00  0.00  0.78  0.00
  H0018753                1.00   0.06  0.00  0.00  0.94  0.00  0.00  0.00  0.94  0.00
  H0018845                1.00   1.00  0.00  0.00  0.00  0.00  0.00  0.00  0.00  0.00
  H0018863                1.00   0.06  0.00  0.00  0.94  0.00  0.00  0.00  0.93  0.00
  H0019156                1.00   1.00  0.00  0.00  0.00  0.00  0.00  0.00  0.00  0.00
  H0018929                1.00   0.06  0.76  0.00  0.18  0.00  0.00  0.00  0.94  0.00
  H0018440                1.00   0.06  0.00  0.00  0.94  0.00  0.00  0.00  0.92  0.00
  H0018456                1.00   0.06  0.00  0.00  0.94  0.00  0.00  0.00  0.93  0.00
  H0018968                1.00   0.07  0.00  0.00  0.76  0.17  0.00  0.00  0.77  0.00
  H0022036                1.00   0.06  0.00  0.00  0.03  0.04  0.00  0.87  0.00  0.00
  H0021806                1.00   0.06  0.76  0.00  0.18  0.00  0.00  0.00  0.84  0.00
  H0022111                1.00   0.06  0.00  0.00  0.94  0.00  0.00  0.00  0.00  0.00
  H0021440                1.00   0.06  0.00  0.00  0.80  0.13  0.00  0.00  0.03  0.00
  H0021704                1.00   0.06  0.00  0.00  0.00  0.00  0.00  0.94  0.00  0.00
  H0020521                1.00   0.06  0.00  0.00  0.94  0.00  0.00  0.00  0.93  0.00
  H0020755                1.00   0.06  0.77  0.00  0.17  0.00  0.00  0.00  0.93  0.00
  H0020530                1.00   0.06  0.00  0.00  0.80  0.13  0.00  0.00  0.00  0.00
  H0020618                1.00   0.06  0.00  0.00  0.78  0.15  0.00  0.00  0.76  0.00
  H0021163                1.00   0.06  0.00  0.00  0.93  0.00  0.00  0.00  0.77  0.00
  H0020497                1.20   0.06  0.94  0.00  0.00  0.00  0.00  0.00  0.00  0.00
  H0024325                1.00   0.06  0.00  0.00  0.80  0.14  0.00  0.00  0.77  0.00
  H0023585                1.00   0.06  0.00  0.00  0.00  0.00  0.00  0.94  0.00  0.00
  H0024098                1.00   0.06  0.76  0.00  0.17  0.00  0.00  0.00  0.93  0.00
  H0024235                1.00   0.06  0.00  0.00  0.00  0.00  0.00  0.94  0.00  0.00
  H0024282                1.00   1.00  0.00  0.00  0.00  0.00  0.00  0.00  0.00  0.00
  H0024308                1.00   0.07  0.00  0.00  0.75  0.18  0.00  0.00  0.07  0.00
  H0024498                1.00   0.06  0.00  0.00  0.00  0.00  0.00  0.94  0.00  0.00
  H0026990                1.00   0.06  0.00  0.00  0.94  0.00  0.00  0.00  0.93  0.00
  H0041650                1.00   0.82  0.01  0.00  0.17  0.00  0.00  0.00  0.93  0.00
  H0041011                1.00   0.07  0.00  0.00  0.93  0.00  0.00  0.00  0.93  0.00
  H0045103                1.00   0.06  0.00  0.00  0.94  0.00  0.00  0.00  0.83  0.00
  H0045104                1.00   0.07  0.00  0.00  0.76  0.17  0.00  0.00  0.18  0.00
  H0045105                1.00   0.06  0.00  0.00  0.94  0.00  0.00  0.00  0.94  0.00
  H0045106                1.00   0.06  0.76  0.00  0.03  0.15  0.00  0.00  0.94  0.00
  H0045107                1.00   0.06  0.00  0.00  0.94  0.00  0.00  0.00  0.93  0.00
  H0045108                1.00   0.06  0.00  0.00  0.94  0.00  0.00  0.00  0.94  0.00
  
  
  *************************
  Conduit Surcharge Summary
  *************************
  
  No conduits were surcharged.
  

  Analysis begun on:  Fri Mar 22 15:54:49 2024
  Analysis ended on:  Fri Mar 22 15:54:59 2024
  Total elapsed time: 00:00:10