
  EPA STORM WATER MANAGEMENT MODEL - VERSION 5.2 (Build 5.2.4)
  PYSWMM TOOLKIT API - VERSION v1.0 (2023-11-27)
  ------------------------------------------------------------

  Gievenbeck_e2_T5D180 
  
  ****************
  Analysis Options
  ****************
  Flow Units ............... CMS
  Process Models:
    Rainfall/Runoff ........ YES
    RDII ................... NO
    Snowmelt ............... NO
    Groundwater ............ NO
    Flow Routing ........... YES
    Ponding Allowed ........ NO
    Water Quality .......... NO
  Infiltration Method ...... HORTON
  Flow Routing Method ...... DYNWAVE
  Surcharge Method ......... SLOT
  Starting Date ............ 01/01/2024 00:00:00
  Ending Date .............. 01/04/2024 04:00:00
  Antecedent Dry Days ...... 14.0
  Report Time Step ......... 00:01:00
  Wet Time Step ............ 00:01:00
  Dry Time Step ............ 00:01:00
  Routing Time Step ........ 1.00 sec
  Variable Time Step ....... YES
  Maximum Trials ........... 8
  Number of Threads ........ 1
  Head Tolerance ........... 0.001500 m
  
  
  **************************        Volume         Depth
  Runoff Quantity Continuity     hectare-m            mm
  **************************     ---------       -------
  Total Precipitation ......         0.320        31.610
  Evaporation Loss .........         0.010         0.953
  Infiltration Loss ........         0.168        16.570
  Surface Runoff ...........         0.143        14.124
  Final Storage ............         0.000         0.000
  Continuity Error (%) .....        -0.117
  
  
  **************************        Volume        Volume
  Flow Routing Continuity        hectare-m      10^6 ltr
  **************************     ---------     ---------
  Dry Weather Inflow .......         0.000         0.000
  Wet Weather Inflow .......         0.143         1.430
  Groundwater Inflow .......         0.000         0.000
  RDII Inflow ..............         0.000         0.000
  External Inflow ..........         0.000         0.000
  External Outflow .........         0.143         1.429
  Flooding Loss ............         0.000         0.000
  Evaporation Loss .........         0.000         0.000
  Exfiltration Loss ........         0.000         0.000
  Initial Stored Volume ....         0.000         0.000
  Final Stored Volume ......         0.000         0.000
  Continuity Error (%) .....         0.008
  
  
  *************************
  Highest Continuity Errors
  *************************
  Node R0019373 (1.96%)
  
  
  ***************************
  Time-Step Critical Elements
  ***************************
  None
  
  
  ********************************
  Highest Flow Instability Indexes
  ********************************
  All links are stable.
  
  
  *********************************
  Most Frequent Nonconverging Nodes
  *********************************
  Convergence obtained at all time steps.
  
  
  *************************
  Routing Time Step Summary
  *************************
  Minimum Time Step           :     0.20 sec
  Average Time Step           :     1.00 sec
  Maximum Time Step           :     1.00 sec
  % of Time in Steady State   :     0.00
  Average Iterations per Step :     2.00
  % of Steps Not Converging   :     0.00
  Time Step Frequencies       :
      1.000 -  0.871 sec      :   100.00 %
      0.871 -  0.758 sec      :     0.00 %
      0.758 -  0.660 sec      :     0.00 %
      0.660 -  0.574 sec      :     0.00 %
      0.574 -  0.500 sec      :     0.00 %
  
  
  ***************************
  Subcatchment Runoff Summary
  ***************************
  
  ------------------------------------------------------------------------------------------------------------------------------
                            Total      Total      Total      Total     Imperv       Perv      Total       Total     Peak  Runoff
                           Precip      Runon       Evap      Infil     Runoff     Runoff     Runoff      Runoff   Runoff   Coeff
  Subcatchment                 mm         mm         mm         mm         mm         mm         mm    10^6 ltr      CMS
  ------------------------------------------------------------------------------------------------------------------------------
  EZG_368                   31.61       0.00       0.95      16.69      14.88       1.36      14.01        0.06     0.08   0.443
  EZG_392                   31.61       0.00       0.94      16.60      14.89       1.45      14.10        0.05     0.06   0.446
  EZG_352                   31.61       0.00       0.95      16.82      14.88       1.23      13.87        0.08     0.10   0.439
  EZG_372                   31.61       0.00       0.93      16.28      14.91       1.77      14.44        0.02     0.03   0.457
  EZG_416                   31.61       0.00       0.94      16.56      14.89       1.49      14.14        0.04     0.06   0.447
  EZG_388                   31.61       0.00       0.95      16.73      14.88       1.32      13.97        0.06     0.08   0.442
  EZG_394                   31.61       0.00       0.94      16.55      14.89       1.50      14.16        0.04     0.05   0.448
  EZG_400                   31.61       0.00       0.94      16.52      14.89       1.53      14.19        0.04     0.05   0.449
  EZG_390                   31.61       0.00       0.94      16.59      14.89       1.45      14.11        0.04     0.06   0.446
  EZG_350                   31.61       0.00       0.95      16.73      14.88       1.32      13.97        0.06     0.08   0.442
  EZG_370                   31.61       0.00       0.95      16.64      14.89       1.41      14.06        0.05     0.07   0.445
  EZG_398                   31.61       0.00       0.93      16.17      14.91       1.89      14.57        0.01     0.02   0.461
  EZG_382                   31.61       0.00       0.93      16.13      14.91       1.93      14.61        0.01     0.02   0.462
  EZG_374                   31.61       0.00       1.14      13.71      17.85       1.62      16.80        0.06     0.08   0.531
  EZG_412                   31.61       0.00       0.92      15.85      14.93       2.22      14.91        0.01     0.01   0.472
  EZG_344                   31.61       0.00       0.94      16.51      14.89       1.54      14.20        0.04     0.05   0.449
  EZG_376                   31.61       0.00       0.94      16.43      14.90       1.63      14.29        0.03     0.04   0.452
  EZG_356                   31.61       0.00       0.95      16.85      14.87       1.20      13.84        0.09     0.11   0.438
  EZG_386                   31.61       0.00       0.96      16.92      14.87       1.12      13.76        0.11     0.14   0.435
  EZG_380                   31.61       0.00       0.95      16.67      14.88       1.38      14.03        0.05     0.07   0.444
  EZG_378                   31.61       0.00       0.94      16.62      14.89       1.43      14.08        0.05     0.06   0.445
  EZG_414                   31.61       0.00       0.93      16.12      14.91       1.94      14.62        0.01     0.02   0.462
  EZG_402                   31.61       0.00       0.94      16.60      14.89       1.45      14.10        0.05     0.06   0.446
  EZG_358                   31.61       0.00       0.95      16.84      14.87       1.20      13.84        0.09     0.11   0.438
  EZG_364                   31.61       0.00       0.95      16.84      14.87       1.20      13.84        0.09     0.11   0.438
  EZG_410                   31.61       0.00       0.94      16.44      14.90       1.61      14.27        0.03     0.04   0.451
  EZG_366                   31.61       0.00       0.94      16.49      14.89       1.56      14.22        0.03     0.05   0.450
  EZG_18259                 31.61       0.00       0.94      16.49      14.89       1.56      14.22        0.03     0.05   0.450
  EZG_18258                 31.61       0.00       0.93      16.00      14.92       2.07      14.75        0.01     0.01   0.467
  EZG_346                   31.61       0.00       0.93      16.94      14.59       1.38      13.78        0.05     0.07   0.436
  EZG_348                   31.61       0.00       0.92      16.76      14.60       1.57      13.98        0.03     0.04   0.442
  
  
  ******************
  Node Depth Summary
  ******************
  
  ---------------------------------------------------------------------------------
                                 Average  Maximum  Maximum  Time of Max    Reported
                                   Depth    Depth      HGL   Occurrence   Max Depth
  Node                 Type       Meters   Meters   Meters  days hr:min      Meters
  ---------------------------------------------------------------------------------
  R0019466             JUNCTION     0.00     0.81    70.26     0  03:05        0.81
  R0019468             JUNCTION     0.00     0.72    70.03     0  03:05        0.72
  R0019831             JUNCTION     0.00     1.09    70.26     0  03:05        1.03
  R0019825             JUNCTION     0.00     1.26    70.10     0  03:05        1.20
  R0019843             JUNCTION     0.01     0.53    68.16     0  03:06        0.53
  R0019368             JUNCTION     0.01     0.75    67.54     0  03:06        0.74
  R0019369             JUNCTION     0.01     0.56    67.15     0  03:06        0.55
  R0019370             JUNCTION     0.00     0.48    66.38     0  03:06        0.47
  R0019345             JUNCTION     0.00     0.47    70.37     0  03:05        0.46
  R0019346             JUNCTION     0.00     0.38    70.18     0  03:05        0.36
  R0043600             JUNCTION     0.00     0.46    70.13     0  03:05        0.44
  R0019203             JUNCTION     0.00     0.46    70.00     0  03:05        0.45
  R0043594             JUNCTION     0.00     0.31    70.04     0  03:05        0.31
  R0021458             JUNCTION     0.00     0.39    70.04     0  03:05        0.39
  R0019202             JUNCTION     0.00     0.43    70.01     0  03:05        0.42
  R0019373             JUNCTION     0.00     0.58    70.25     0  03:05        0.58
  R0019254             JUNCTION     0.00     0.91    70.95     0  03:05        0.90
  R0019716             JUNCTION     0.00     0.50    69.51     0  03:05        0.50
  R0019946             JUNCTION     0.01     0.70    69.32     0  03:05        0.70
  R0013935             JUNCTION     0.00     0.76    69.59     0  03:05        0.72
  R0019939             JUNCTION     0.00     0.91    69.48     0  03:05        0.87
  R0019944             JUNCTION     0.00     0.43    68.71     0  03:06        0.43
  R0043703             JUNCTION     0.01     0.54    69.14     0  03:06        0.54
  R0019945             JUNCTION     0.01     0.55    68.95     0  03:06        0.55
  R0039621             JUNCTION     0.00     0.20    69.77     0  03:05        0.20
  R0019838             JUNCTION     0.00     0.31    69.77     0  03:05        0.31
  R0039606             JUNCTION     0.00     0.42    70.01     0  03:05        0.42
  R0019204             JUNCTION     0.00     0.00    69.91     0  00:00        0.00
  R0019205             JUNCTION     0.00     0.00    69.62     0  00:00        0.00
  R0019849             JUNCTION     0.00     0.86    69.38     0  03:05        0.82
  R0019371             JUNCTION     0.00     0.00    70.41     0  00:00        0.00
  R0019718             JUNCTION     0.01     0.55    69.97     0  03:05        0.54
  R0021442             JUNCTION     0.01     2.00    72.05     0  03:05        1.95
  R0019247             JUNCTION     0.00     0.89    70.77     0  03:05        0.84
  R0019719             JUNCTION     0.00     0.37    70.05     0  03:05        0.36
  R0019767             JUNCTION     0.01     0.51    65.24     0  03:06        0.50
  R0019768             JUNCTION     0.00     0.43    64.20     0  03:06        0.43
  R0021453             JUNCTION     0.00     0.12    70.07     0  03:05        0.12
  R0019839             JUNCTION     0.00     0.29    69.68     0  03:05        0.28
  R0019717             JUNCTION     0.00     0.49    69.83     0  03:05        0.48
  R0019252             JUNCTION     0.00     0.99    71.18     0  03:05        0.97
  R0019721             JUNCTION     0.00     0.34    70.21     0  03:05        0.34
  R0019942             JUNCTION     0.00     0.87    69.52     0  03:05        0.81
  R0019206             JUNCTION     0.00     0.00    69.07     0  00:00        0.00
  R0019840             JUNCTION     0.00     0.26    69.23     0  03:05        0.26
  R0043702             JUNCTION     0.00     0.40    69.10     0  03:05        0.39
  R0019723             JUNCTION     0.00     0.18    70.26     0  03:05        0.18
  R0019724             JUNCTION     0.00     0.11    70.27     0  03:05        0.11
  R0021433             JUNCTION     0.00     2.12    72.51     0  03:05        2.04
  R0021435             JUNCTION     0.00     2.11    72.29     0  03:05        2.10
  R0019769             OUTFALL      0.00     0.43    63.81     0  03:06        0.43
  
  
  *******************
  Node Inflow Summary
  *******************
  
  -------------------------------------------------------------------------------------------------
                                  Maximum  Maximum                  Lateral       Total        Flow
                                  Lateral    Total  Time of Max      Inflow      Inflow     Balance
                                   Inflow   Inflow   Occurrence      Volume      Volume       Error
  Node                 Type           CMS      CMS  days hr:min    10^6 ltr    10^6 ltr     Percent
  -------------------------------------------------------------------------------------------------
  R0019466             JUNCTION     0.076    0.087     0  03:02      0.0579      0.0972       0.120
  R0019468             JUNCTION     0.047    0.118     0  03:05       0.034       0.131      -0.037
  R0019831             JUNCTION     0.061    0.061     0  03:05      0.0457      0.0457       0.107
  R0019825             JUNCTION     0.061    0.115     0  03:05      0.0458      0.0914       0.214
  R0019843             JUNCTION     0.000    1.531     0  03:06           0        1.43      -0.002
  R0019368             JUNCTION     0.000    1.537     0  03:06           0        1.43       0.013
  R0019369             JUNCTION     0.000    1.546     0  03:06           0        1.43      -0.012
  R0019370             JUNCTION     0.000    1.545     0  03:06           0        1.43       0.001
  R0019345             JUNCTION     0.000    0.114     0  03:05           0      0.0894       0.057
  R0019346             JUNCTION     0.010    0.184     0  03:05     0.00595       0.151      -0.020
  R0043600             JUNCTION     0.000    0.198     0  03:05           0       0.173      -0.083
  R0019203             JUNCTION     0.020    0.467     0  03:05      0.0129       0.399      -0.005
  R0043594             JUNCTION     0.104    0.152     0  03:05      0.0819       0.118      -0.020
  R0021458             JUNCTION     0.083    0.215     0  03:05      0.0641       0.182      -0.006
  R0019202             JUNCTION     0.028    0.257     0  03:05      0.0195       0.212      -0.419
  R0019373             JUNCTION     0.067    0.070     0  03:05      0.0504      0.0509       1.998
  R0019254             JUNCTION     0.056    0.116     0  03:05      0.0412      0.0895       0.062
  R0019716             JUNCTION     0.083    0.915     0  03:05      0.0637       0.808      -0.018
  R0019946             JUNCTION     0.000    0.921     0  03:05           0       0.808       0.005
  R0013935             JUNCTION     0.054    0.054     0  03:05      0.0393      0.0393       0.069
  R0019939             JUNCTION     0.022    0.070     0  03:05      0.0144      0.0537      -0.060
  R0019944             JUNCTION     0.050    1.147     0  03:06      0.0366        1.03       0.011
  R0043703             JUNCTION     0.060    0.967     0  03:06      0.0446       0.852       0.014
  R0019945             JUNCTION     0.000    1.121     0  03:06           0       0.998      -0.013
  R0039621             JUNCTION     0.000    0.006     0  03:01           0     0.00126       0.630
  R0019838             JUNCTION     0.112    0.112     0  03:05      0.0887      0.0899      -0.009
  R0039606             JUNCTION     0.000    0.178     0  03:05           0       0.182       0.049
  R0019204             JUNCTION     0.000    0.000     0  00:00           0           0       0.000 ltr
  R0019205             JUNCTION     0.000    0.000     0  00:00           0           0       0.000 ltr
  R0019849             JUNCTION     0.000    0.173     0  03:05           0       0.145       0.013
  R0019371             JUNCTION     0.000    0.000     0  00:00           0           0       0.000 ltr
  R0019718             JUNCTION     0.072    0.524     0  03:05      0.0546       0.453      -0.948
  R0021442             JUNCTION     0.082    0.169     0  03:05      0.0637       0.145       0.055
  R0019247             JUNCTION     0.040    0.199     0  03:05      0.0285       0.173       0.071
  R0019719             JUNCTION     0.042    0.217     0  03:05        0.03       0.181       0.530
  R0019767             JUNCTION     0.000    1.552     0  03:06           0        1.43      -0.006
  R0019768             JUNCTION     0.000    1.562     0  03:06           0        1.43       0.010
  R0021453             JUNCTION     0.049    0.049     0  03:05      0.0359      0.0359      -0.091
  R0019839             JUNCTION     0.110    0.211     0  03:05      0.0876       0.176       0.000
  R0019717             JUNCTION     0.135    0.844     0  03:05        0.11       0.747       0.443
  R0019252             JUNCTION     0.064    0.064     0  03:05      0.0483      0.0483      -0.064
  R0019721             JUNCTION     0.019    0.077     0  03:05      0.0127      0.0556      -0.002
  R0019942             JUNCTION     0.000    0.109     0  03:05           0      0.0912      -0.286
  R0019206             JUNCTION     0.000    0.000     0  00:00           0           0       0.000 ltr
  R0019840             JUNCTION     0.000    0.324     0  03:05           0       0.307       0.002
  R0043702             JUNCTION     0.111    0.423     0  03:05      0.0877       0.395       0.002
  R0019723             JUNCTION     0.047    0.060     0  03:05      0.0338      0.0428      -0.042
  R0019724             JUNCTION     0.014    0.014     0  03:05     0.00903     0.00903      -0.056
  R0021433             JUNCTION     0.067    0.067     0  03:05      0.0502      0.0502      -0.173
  R0021435             JUNCTION     0.043    0.101     0  03:05      0.0311      0.0813      -0.047
  R0019769             OUTFALL      0.000    1.567     0  03:06           0        1.43       0.000
  
  
  **********************
  Node Surcharge Summary
  **********************
  
  Surcharging occurs when water rises above the top of the highest conduit.
  ---------------------------------------------------------------------
                                               Max. Height   Min. Depth
                                   Hours       Above Crown    Below Rim
  Node                 Type      Surcharged         Meters       Meters
  ---------------------------------------------------------------------
  R0019466             JUNCTION        0.12          0.513        1.997
  R0019468             JUNCTION        0.11          0.420        2.010
  R0019831             JUNCTION        0.06          0.787        0.573
  R0019825             JUNCTION        0.10          0.964        0.236
  R0019345             JUNCTION        0.06          0.174        1.576
  R0043600             JUNCTION        0.03          0.065        2.515
  R0019373             JUNCTION        0.06          0.284        2.216
  R0019254             JUNCTION        0.08          0.614        1.216
  R0013935             JUNCTION        0.06          0.456        0.864
  R0019939             JUNCTION        0.12          0.614        1.006
  R0019849             JUNCTION        0.13          0.562        1.368
  R0021442             JUNCTION        0.14          1.705        0.045
  R0019247             JUNCTION        0.07          0.489        1.371
  R0019252             JUNCTION        0.06          0.687        0.953
  R0019942             JUNCTION        0.10          0.574        1.076
  R0021433             JUNCTION        0.09          1.824        0.026
  R0021435             JUNCTION        0.12          1.810        0.000
  
  
  *********************
  Node Flooding Summary
  *********************
  
  Flooding refers to all water that overflows a node, whether it ponds or not.
  --------------------------------------------------------------------------
                                                             Total   Maximum
                                 Maximum   Time of Max       Flood    Ponded
                        Hours       Rate    Occurrence      Volume     Depth
  Node                 Flooded       CMS   days hr:min    10^6 ltr    Meters
  --------------------------------------------------------------------------
  R0021435                0.01     0.019      0  03:05       0.000     0.000
  
  
  ***********************
  Outfall Loading Summary
  ***********************
  
  -----------------------------------------------------------
                         Flow       Avg       Max       Total
                         Freq      Flow      Flow      Volume
  Outfall Node           Pcnt       CMS       CMS    10^6 ltr
  -----------------------------------------------------------
  R0019769               6.90     0.076     1.567       1.429
  -----------------------------------------------------------
  System                 6.90     0.076     1.567       1.429
  
  
  ********************
  Link Flow Summary
  ********************
  
  -----------------------------------------------------------------------------
                                 Maximum  Time of Max   Maximum    Max/    Max/
                                  |Flow|   Occurrence   |Veloc|    Full    Full
  Link                 Type          CMS  days hr:min     m/sec    Flow   Depth
  -----------------------------------------------------------------------------
  H0014431             CONDUIT     0.074     0  03:02      1.04    1.36    1.00
  H0014433             CONDUIT     0.055     0  03:05      0.78    0.70    1.00
  H0014352             CONDUIT     1.537     0  03:06      3.17    0.63    0.71
  H0014373             CONDUIT     1.545     0  03:06      4.06    0.71    0.58
  H0017981             CONDUIT     0.113     0  03:05      1.60    3.21    1.00
  H0017755             CONDUIT     0.197     0  03:05      1.57    1.60    1.00
  H0017791             CONDUIT     0.132     0  03:05      0.65    0.19    0.39
  H0017357             CONDUIT     0.070     0  03:05      0.99    1.12    1.00
  H0018216             CONDUIT     0.114     0  03:05      1.61    2.07    1.00
  H0016792             CONDUIT     0.921     0  03:05      2.04    0.53    0.67
  H0019507             CONDUIT     0.049     0  03:05      0.72    0.68    1.00
  H0019998             CONDUIT     1.153     0  03:06      3.38    0.46    0.54
  H0019576             CONDUIT     0.974     0  03:06      2.42    0.65    0.61
  H0020087             CONDUIT     0.007     0  03:06      0.15    0.03    0.51
  H0020211             CONDUIT     0.932     0  03:06      2.02    2.32    0.69
  H0018982             CONDUIT     0.178     0  03:05      0.82    0.29    0.45
  H0018753             CONDUIT     0.038     0  03:02      0.63    0.53    1.00
  H0018845             CONDUIT     0.000     0  00:00      0.00    0.00    0.00
  H0018863             CONDUIT     0.067     0  03:05      0.94    1.56    1.00
  H0019156             CONDUIT     0.000     0  00:00      0.00    0.00    0.00
  H0018929             CONDUIT     0.469     0  03:05      1.31    0.41    0.56
  H0018440             CONDUIT     0.161     0  03:05      2.28    2.88    1.00
  H0018456             CONDUIT     0.183     0  03:05      1.52    1.11    0.93
  H0018968             CONDUIT     1.562     0  03:06      4.70    0.60    0.52
  H0022036             CONDUIT     0.048     0  03:05      0.49    0.04    0.22
  H0021806             CONDUIT     0.198     0  03:05      1.57    1.75    1.00
  H0022111             CONDUIT     0.103     0  03:05      0.85    0.73    0.60
  H0021440             CONDUIT     0.854     0  03:05      2.42    0.55    0.55
  H0021704             CONDUIT     0.529     0  03:06      1.52    1.01    0.55
  H0020521             CONDUIT     0.061     0  03:05      0.87    1.24    1.00
  H0020755             CONDUIT     0.070     0  03:06      0.65    0.77    0.90
  H0020530             CONDUIT     1.546     0  03:06      3.12    1.32    0.73
  H0020618             CONDUIT     1.120     0  03:06      3.15    0.69    0.55
  H0021163             CONDUIT     0.109     0  03:05      1.55    1.83    1.00
  H0020497             CONDUIT     0.000     0  00:00      0.00    0.00    0.89
  H0024325             CONDUIT     0.208     0  03:05      1.89    0.62    0.55
  H0023585             CONDUIT     0.421     0  03:05      2.55    0.97    0.79
  H0024098             CONDUIT     0.172     0  03:05      2.43    2.01    1.00
  H0024235             CONDUIT     0.217     0  03:05      1.47    0.89    0.71
  H0024282             CONDUIT     0.000     0  00:00      0.00    0.00    0.00
  H0024308             CONDUIT     1.567     0  03:06      5.25    0.46    0.48
  H0024498             CONDUIT     0.117     0  03:05      1.65    1.81    1.00
  H0026990             CONDUIT     0.058     0  03:05      0.75    0.44    0.65
  H0041650             CONDUIT     0.256     0  03:05      0.84    0.30    0.49
  H0041011             CONDUIT     0.108     0  03:05      1.53    1.07    1.00
  H0045103             CONDUIT     0.198     0  03:06      0.79    0.25    0.47
  H0045104             CONDUIT     1.552     0  03:06      4.36    0.55    0.55
  H0045105             CONDUIT     0.014     0  03:05      0.38    0.23    0.50
  H0045106             CONDUIT     0.324     0  03:05      2.38    0.44    0.66
  H0045107             CONDUIT     0.064     0  03:05      0.90    1.05    1.00
  H0045108             CONDUIT     0.093     0  03:05      1.31    1.67    1.00
  
  
  ***************************
  Flow Classification Summary
  ***************************
  
  -------------------------------------------------------------------------------------
                      Adjusted    ---------- Fraction of Time in Flow Class ---------- 
                       /Actual         Up    Down  Sub   Sup   Up    Down  Norm  Inlet 
  Conduit               Length    Dry  Dry   Dry   Crit  Crit  Crit  Crit  Ltd   Ctrl  
  -------------------------------------------------------------------------------------
  H0014431                1.00   0.03  0.00  0.00  0.97  0.00  0.00  0.00  0.96  0.00
  H0014433                1.00   0.03  0.00  0.00  0.97  0.00  0.00  0.00  0.97  0.00
  H0014352                1.00   0.03  0.00  0.00  0.92  0.05  0.00  0.00  0.97  0.00
  H0014373                1.00   0.03  0.00  0.00  0.91  0.06  0.00  0.00  0.89  0.00
  H0017981                1.00   0.03  0.00  0.00  0.00  0.00  0.00  0.97  0.00  0.00
  H0017755                1.00   0.03  0.00  0.00  0.00  0.00  0.00  0.97  0.00  0.00
  H0017791                1.00   0.03  0.00  0.00  0.97  0.00  0.00  0.00  0.97  0.00
  H0017357                1.00   0.03  0.97  0.00  0.00  0.00  0.00  0.00  0.96  0.00
  H0018216                1.00   0.03  0.90  0.00  0.07  0.00  0.00  0.00  0.97  0.00
  H0016792                1.00   0.03  0.89  0.00  0.08  0.00  0.00  0.00  0.97  0.00
  H0019507                1.00   0.03  0.00  0.00  0.97  0.00  0.00  0.00  0.97  0.00
  H0019998                1.00   0.03  0.00  0.00  0.91  0.06  0.00  0.00  0.08  0.00
  H0019576                1.00   0.03  0.00  0.00  0.93  0.04  0.00  0.00  0.07  0.00
  H0020087                1.00   0.03  0.95  0.00  0.02  0.00  0.00  0.00  0.96  0.00
  H0020211                1.00   0.03  0.00  0.00  0.97  0.00  0.00  0.00  0.89  0.00
  H0018982                1.00   0.03  0.00  0.00  0.97  0.00  0.00  0.00  0.91  0.00
  H0018753                1.00   0.03  0.00  0.00  0.97  0.00  0.00  0.00  0.97  0.00
  H0018845                1.00   1.00  0.00  0.00  0.00  0.00  0.00  0.00  0.00  0.00
  H0018863                1.00   0.03  0.00  0.00  0.97  0.00  0.00  0.00  0.96  0.00
  H0019156                1.00   1.00  0.00  0.00  0.00  0.00  0.00  0.00  0.00  0.00
  H0018929                1.00   0.03  0.90  0.00  0.07  0.00  0.00  0.00  0.97  0.00
  H0018440                1.00   0.03  0.00  0.00  0.97  0.00  0.00  0.00  0.96  0.00
  H0018456                1.00   0.03  0.00  0.00  0.97  0.00  0.00  0.00  0.96  0.00
  H0018968                1.00   0.03  0.89  0.00  0.01  0.07  0.00  0.00  0.91  0.00
  H0022036                1.00   0.03  0.00  0.00  0.02  0.01  0.00  0.93  0.02  0.00
  H0021806                1.00   0.03  0.90  0.00  0.07  0.00  0.00  0.00  0.93  0.00
  H0022111                1.00   0.03  0.00  0.00  0.97  0.00  0.00  0.00  0.00  0.00
  H0021440                1.00   0.03  0.00  0.00  0.92  0.05  0.00  0.00  0.02  0.00
  H0021704                1.00   0.03  0.00  0.00  0.00  0.00  0.00  0.97  0.00  0.00
  H0020521                1.00   0.03  0.00  0.00  0.97  0.00  0.00  0.00  0.97  0.00
  H0020755                1.00   0.03  0.91  0.00  0.06  0.00  0.00  0.00  0.97  0.00
  H0020530                1.00   0.03  0.00  0.00  0.92  0.04  0.00  0.00  0.01  0.00
  H0020618                1.00   0.03  0.00  0.00  0.91  0.05  0.00  0.00  0.91  0.00
  H0021163                1.00   0.03  0.00  0.00  0.96  0.01  0.00  0.00  0.91  0.00
  H0020497                1.20   0.03  0.97  0.00  0.00  0.00  0.00  0.00  0.00  0.00
  H0024325                1.00   0.03  0.00  0.00  0.92  0.05  0.00  0.00  0.91  0.00
  H0023585                1.00   0.03  0.00  0.00  0.00  0.00  0.00  0.97  0.00  0.00
  H0024098                1.00   0.03  0.90  0.00  0.07  0.00  0.00  0.00  0.96  0.00
  H0024235                1.00   0.03  0.00  0.00  0.00  0.00  0.00  0.97  0.00  0.00
  H0024282                1.00   1.00  0.00  0.00  0.00  0.00  0.00  0.00  0.00  0.00
  H0024308                1.00   0.03  0.00  0.00  0.89  0.08  0.00  0.00  0.02  0.00
  H0024498                1.00   0.03  0.00  0.00  0.00  0.00  0.00  0.97  0.00  0.00
  H0026990                1.00   0.03  0.00  0.00  0.97  0.00  0.00  0.00  0.97  0.00
  H0041650                1.00   0.93  0.01  0.00  0.06  0.00  0.00  0.00  0.96  0.00
  H0041011                1.00   0.03  0.00  0.00  0.97  0.00  0.00  0.00  0.96  0.00
  H0045103                1.00   0.03  0.00  0.00  0.97  0.00  0.00  0.00  0.92  0.00
  H0045104                1.00   0.03  0.00  0.00  0.90  0.07  0.00  0.00  0.07  0.00
  H0045105                1.00   0.03  0.00  0.00  0.97  0.00  0.00  0.00  0.97  0.00
  H0045106                1.00   0.03  0.90  0.00  0.02  0.05  0.00  0.00  0.97  0.00
  H0045107                1.00   0.03  0.00  0.00  0.97  0.00  0.00  0.00  0.97  0.00
  H0045108                1.00   0.03  0.00  0.00  0.97  0.00  0.00  0.00  0.97  0.00
  
  
  *************************
  Conduit Surcharge Summary
  *************************
  
  ----------------------------------------------------------------------------
                                                           Hours        Hours 
                         --------- Hours Full --------   Above Full   Capacity
  Conduit                Both Ends  Upstream  Dnstream   Normal Flow   Limited
  ----------------------------------------------------------------------------
  H0014431                    0.11      0.12      0.11      0.13         0.11
  H0014433                    0.06      0.06      0.10      0.01         0.01
  H0017981                    0.01      0.06      0.01      0.14         0.04
  H0017755                    0.01      0.03      0.01      0.08         0.02
  H0017357                    0.01      0.01      0.06      0.02         0.01
  H0018216                    0.06      0.08      0.06      0.10         0.07
  H0019507                    0.06      0.06      0.12      0.01         0.01
  H0020211                    0.01      0.01      0.01      0.13         0.01
  H0018753                    0.06      0.06      0.12      0.01         0.01
  H0018863                    0.12      0.12      0.13      0.06         0.06
  H0018440                    0.10      0.14      0.10      0.16         0.13
  H0018456                    0.01      0.01      0.01      0.03         0.01
  H0021806                    0.03      0.07      0.03      0.09         0.06
  H0021704                    0.01      0.01      0.01      0.01         0.01
  H0020521                    0.06      0.06      0.08      0.04         0.04
  H0020530                    0.01      0.01      0.01      0.06         0.01
  H0021163                    0.09      0.10      0.10      0.10         0.08
  H0024098                    0.13      0.13      0.16      0.10         0.10
  H0024498                    0.01      0.11      0.01      0.14         0.08
  H0041011                    0.10      0.10      0.13      0.02         0.02
  H0045107                    0.09      0.09      0.12      0.01         0.01
  H0045108                    0.12      0.12      0.14      0.09         0.09
  

  Analysis begun on:  Fri Mar 22 15:56:40 2024
  Analysis ended on:  Fri Mar 22 15:56:48 2024
  Total elapsed time: 00:00:08