
  EPA STORM WATER MANAGEMENT MODEL - VERSION 5.2 (Build 5.2.4)
  PYSWMM TOOLKIT API - VERSION v1.0 (2023-11-27)
  ------------------------------------------------------------

  Gievenbeck_e2_T20D30 
  
  ****************
  Analysis Options
  ****************
  Flow Units ............... CMS
  Process Models:
    Rainfall/Runoff ........ YES
    RDII ................... NO
    Snowmelt ............... NO
    Groundwater ............ NO
    Flow Routing ........... YES
    Ponding Allowed ........ NO
    Water Quality .......... NO
  Infiltration Method ...... HORTON
  Flow Routing Method ...... DYNWAVE
  Surcharge Method ......... SLOT
  Starting Date ............ 01/01/2024 00:00:00
  Ending Date .............. 01/04/2024 04:00:00
  Antecedent Dry Days ...... 14.0
  Report Time Step ......... 00:01:00
  Wet Time Step ............ 00:01:00
  Dry Time Step ............ 00:01:00
  Routing Time Step ........ 1.00 sec
  Variable Time Step ....... YES
  Maximum Trials ........... 8
  Number of Threads ........ 1
  Head Tolerance ........... 0.001500 m
  
  
  **************************        Volume         Depth
  Runoff Quantity Continuity     hectare-m            mm
  **************************     ---------       -------
  Total Precipitation ......         0.273        27.000
  Evaporation Loss .........         0.010         0.966
  Infiltration Loss ........         0.125        12.329
  Surface Runoff ...........         0.139        13.774
  Final Storage ............         0.000         0.000
  Continuity Error (%) .....        -0.257
  
  
  **************************        Volume        Volume
  Flow Routing Continuity        hectare-m      10^6 ltr
  **************************     ---------     ---------
  Dry Weather Inflow .......         0.000         0.000
  Wet Weather Inflow .......         0.139         1.394
  Groundwater Inflow .......         0.000         0.000
  RDII Inflow ..............         0.000         0.000
  External Inflow ..........         0.000         0.000
  External Outflow .........         0.138         1.378
  Flooding Loss ............         0.002         0.018
  Evaporation Loss .........         0.000         0.000
  Exfiltration Loss ........         0.000         0.000
  Initial Stored Volume ....         0.000         0.000
  Final Stored Volume ......         0.000         0.000
  Continuity Error (%) .....        -0.110
  
  
  *************************
  Highest Continuity Errors
  *************************
  Node R0019373 (2.04%)
  Node R0019718 (-1.75%)
  
  
  ***************************
  Time-Step Critical Elements
  ***************************
  None
  
  
  ********************************
  Highest Flow Instability Indexes
  ********************************
  All links are stable.
  
  
  *********************************
  Most Frequent Nonconverging Nodes
  *********************************
  Convergence obtained at all time steps.
  
  
  *************************
  Routing Time Step Summary
  *************************
  Minimum Time Step           :     0.50 sec
  Average Time Step           :     1.00 sec
  Maximum Time Step           :     1.00 sec
  % of Time in Steady State   :     0.00
  Average Iterations per Step :     2.00
  % of Steps Not Converging   :     0.00
  Time Step Frequencies       :
      1.000 -  0.871 sec      :    99.99 %
      0.871 -  0.758 sec      :     0.00 %
      0.758 -  0.660 sec      :     0.00 %
      0.660 -  0.574 sec      :     0.00 %
      0.574 -  0.500 sec      :     0.00 %
  
  
  ***************************
  Subcatchment Runoff Summary
  ***************************
  
  ------------------------------------------------------------------------------------------------------------------------------
                            Total      Total      Total      Total     Imperv       Perv      Total       Total     Peak  Runoff
                           Precip      Runon       Evap      Infil     Runoff     Runoff     Runoff      Runoff   Runoff   Coeff
  Subcatchment                 mm         mm         mm         mm         mm         mm         mm    10^6 ltr      CMS
  ------------------------------------------------------------------------------------------------------------------------------
  EZG_368                   27.00       0.00       0.96      12.43      12.60       2.97      13.68        0.06     0.11   0.507
  EZG_392                   27.00       0.00       0.96      12.31      12.61       3.09      13.81        0.04     0.09   0.511
  EZG_352                   27.00       0.00       0.97      12.62      12.59       2.77      13.47        0.08     0.15   0.499
  EZG_372                   27.00       0.00       0.94      11.91      12.63       3.50      14.24        0.02     0.04   0.527
  EZG_416                   27.00       0.00       0.95      12.25      12.61       3.15      13.87        0.04     0.08   0.514
  EZG_388                   27.00       0.00       0.96      12.48      12.60       2.91      13.62        0.06     0.12   0.504
  EZG_394                   27.00       0.00       0.95      12.23      12.61       3.17      13.89        0.04     0.08   0.514
  EZG_400                   27.00       0.00       0.95      12.19      12.61       3.21      13.93        0.04     0.07   0.516
  EZG_390                   27.00       0.00       0.96      12.29      12.61       3.11      13.82        0.04     0.08   0.512
  EZG_350                   27.00       0.00       0.96      12.49      12.60       2.91      13.62        0.06     0.12   0.504
  EZG_370                   27.00       0.00       0.96      12.36      12.60       3.04      13.75        0.05     0.09   0.509
  EZG_398                   27.00       0.00       0.94      11.79      12.64       3.63      14.37        0.01     0.03   0.532
  EZG_382                   27.00       0.00       0.94      11.75      12.64       3.68      14.42        0.01     0.03   0.534
  EZG_374                   27.00       0.00       1.15       9.97      15.11       3.11      15.96        0.06     0.11   0.591
  EZG_412                   27.00       0.00       0.93      11.49      12.65       3.95      14.70        0.01     0.01   0.545
  EZG_344                   27.00       0.00       0.95      12.19      12.61       3.22      13.94        0.04     0.07   0.516
  EZG_376                   27.00       0.00       0.95      12.08      12.62       3.33      14.06        0.03     0.06   0.521
  EZG_356                   27.00       0.00       0.97      12.67      12.59       2.72      13.42        0.09     0.16   0.497
  EZG_386                   27.00       0.00       0.97      12.79      12.58       2.60      13.29        0.11     0.19   0.492
  EZG_380                   27.00       0.00       0.96      12.40      12.60       3.00      13.71        0.05     0.10   0.508
  EZG_378                   27.00       0.00       0.96      12.34      12.61       3.06      13.78        0.05     0.09   0.510
  EZG_414                   27.00       0.00       0.94      11.74      12.64       3.68      14.42        0.01     0.03   0.534
  EZG_402                   27.00       0.00       0.96      12.31      12.61       3.09      13.81        0.04     0.09   0.511
  EZG_358                   27.00       0.00       0.97      12.66      12.59       2.73      13.43        0.09     0.15   0.497
  EZG_364                   27.00       0.00       0.97      12.66      12.59       2.73      13.43        0.09     0.16   0.497
  EZG_410                   27.00       0.00       0.95      12.10      12.62       3.31      14.03        0.03     0.06   0.520
  EZG_366                   27.00       0.00       0.95      12.16      12.61       3.24      13.97        0.03     0.07   0.517
  EZG_18259                 27.00       0.00       0.95      12.16      12.61       3.25      13.97        0.03     0.07   0.517
  EZG_18258                 27.00       0.00       0.93      11.62      12.65       3.81      14.56        0.01     0.02   0.539
  EZG_346                   27.00       0.00       0.94      12.61      12.35       3.02      13.52        0.05     0.09   0.501
  EZG_348                   27.00       0.00       0.93      12.36      12.37       3.27      13.78        0.03     0.06   0.511
  
  
  ******************
  Node Depth Summary
  ******************
  
  ---------------------------------------------------------------------------------
                                 Average  Maximum  Maximum  Time of Max    Reported
                                   Depth    Depth      HGL   Occurrence   Max Depth
  Node                 Type       Meters   Meters   Meters  days hr:min      Meters
  ---------------------------------------------------------------------------------
  R0019466             JUNCTION     0.00     1.24    70.69     0  02:15        1.23
  R0019468             JUNCTION     0.00     1.14    70.45     0  02:15        1.08
  R0019831             JUNCTION     0.00     1.53    70.70     0  02:15        1.53
  R0019825             JUNCTION     0.00     1.50    70.34     0  02:13        1.50
  R0019843             JUNCTION     0.00     0.86    68.49     0  02:16        0.86
  R0019368             JUNCTION     0.00     1.36    68.15     0  02:15        1.23
  R0019369             JUNCTION     0.00     0.70    67.29     0  02:15        0.68
  R0019370             JUNCTION     0.00     0.57    66.47     0  02:16        0.57
  R0019345             JUNCTION     0.00     0.93    70.83     0  02:15        0.87
  R0019346             JUNCTION     0.00     0.70    70.50     0  02:15        0.64
  R0043600             JUNCTION     0.00     0.56    70.23     0  02:15        0.55
  R0019203             JUNCTION     0.00     0.56    70.10     0  02:15        0.56
  R0043594             JUNCTION     0.00     0.42    70.15     0  02:15        0.41
  R0021458             JUNCTION     0.00     0.49    70.14     0  02:15        0.48
  R0019202             JUNCTION     0.00     0.53    70.11     0  02:15        0.53
  R0019373             JUNCTION     0.00     0.99    70.66     0  02:15        0.98
  R0019254             JUNCTION     0.00     1.74    71.78     0  02:15        1.69
  R0019716             JUNCTION     0.00     0.62    69.63     0  02:15        0.62
  R0019946             JUNCTION     0.00     0.88    69.50     0  02:15        0.88
  R0013935             JUNCTION     0.00     1.31    70.14     0  02:15        1.29
  R0019939             JUNCTION     0.00     1.34    69.91     0  02:15        1.31
  R0019944             JUNCTION     0.00     0.56    68.84     0  02:16        0.55
  R0043703             JUNCTION     0.00     0.66    69.26     0  02:15        0.66
  R0019945             JUNCTION     0.00     0.67    69.07     0  02:16        0.67
  R0039621             JUNCTION     0.00     0.28    69.85     0  02:15        0.28
  R0019838             JUNCTION     0.00     0.39    69.85     0  02:15        0.38
  R0039606             JUNCTION     0.00     0.53    70.12     0  02:15        0.52
  R0019204             JUNCTION     0.00     0.00    69.91     0  00:00        0.00
  R0019205             JUNCTION     0.00     0.00    69.62     0  00:00        0.00
  R0019849             JUNCTION     0.00     1.16    69.68     0  02:15        1.12
  R0019371             JUNCTION     0.00     0.00    70.41     0  00:00        0.00
  R0019718             JUNCTION     0.00     0.65    70.07     0  02:15        0.64
  R0021442             JUNCTION     0.00     2.05    72.10     0  02:13        2.05
  R0019247             JUNCTION     0.00     1.05    70.93     0  02:15        1.04
  R0019719             JUNCTION     0.00     0.55    70.23     0  02:15        0.52
  R0019767             JUNCTION     0.00     0.61    65.34     0  02:16        0.58
  R0019768             JUNCTION     0.00     0.50    64.27     0  02:16        0.49
  R0021453             JUNCTION     0.00     0.21    70.16     0  02:16        0.21
  R0019839             JUNCTION     0.00     0.39    69.78     0  02:15        0.36
  R0019717             JUNCTION     0.00     0.59    69.93     0  02:15        0.58
  R0019252             JUNCTION     0.00     1.94    72.13     0  02:15        1.91
  R0019721             JUNCTION     0.00     0.71    70.58     0  02:15        0.61
  R0019942             JUNCTION     0.00     1.16    69.81     0  02:15        1.13
  R0019206             JUNCTION     0.00     0.00    69.07     0  00:00        0.00
  R0019840             JUNCTION     0.00     0.71    69.68     0  02:15        0.55
  R0043702             JUNCTION     0.00     0.90    69.60     0  02:15        0.77
  R0019723             JUNCTION     0.00     0.59    70.67     0  02:15        0.46
  R0019724             JUNCTION     0.00     0.54    70.70     0  02:15        0.37
  R0021433             JUNCTION     0.00     2.15    72.54     0  02:13        2.15
  R0021435             JUNCTION     0.00     2.11    72.29     0  02:13        2.11
  R0019769             OUTFALL      0.00     0.50    63.88     0  02:16        0.49
  
  
  *******************
  Node Inflow Summary
  *******************
  
  -------------------------------------------------------------------------------------------------
                                  Maximum  Maximum                  Lateral       Total        Flow
                                  Lateral    Total  Time of Max      Inflow      Inflow     Balance
                                   Inflow   Inflow   Occurrence      Volume      Volume       Error
  Node                 Type           CMS      CMS  days hr:min    10^6 ltr    10^6 ltr     Percent
  -------------------------------------------------------------------------------------------------
  R0019466             JUNCTION     0.107    0.107     0  02:15      0.0565      0.0828       0.180
  R0019468             JUNCTION     0.066    0.147     0  02:15      0.0334       0.112      -0.103
  R0019831             JUNCTION     0.087    0.087     0  02:15      0.0447      0.0447       0.167
  R0019825             JUNCTION     0.087    0.171     0  02:15      0.0449      0.0895       0.250
  R0019843             JUNCTION     0.000    2.043     0  02:15           0        1.38      -0.039
  R0019368             JUNCTION     0.000    2.090     0  02:15           0        1.38      -0.027
  R0019369             JUNCTION     0.000    2.032     0  02:15           0        1.38      -0.035
  R0019370             JUNCTION     0.000    2.018     0  02:15           0        1.38       0.005
  R0019345             JUNCTION     0.000    0.154     0  02:15           0      0.0875       0.042
  R0019346             JUNCTION     0.014    0.255     0  02:15     0.00587       0.148       0.023
  R0043600             JUNCTION     0.000    0.210     0  02:15           0       0.156      -0.095
  R0019203             JUNCTION     0.028    0.601     0  02:15      0.0127       0.392      -0.006
  R0043594             JUNCTION     0.146    0.211     0  02:14      0.0796       0.115      -0.142
  R0021458             JUNCTION     0.117    0.274     0  02:14      0.0625       0.178      -0.010
  R0019202             JUNCTION     0.040    0.381     0  02:15      0.0193       0.222      -0.535
  R0019373             JUNCTION     0.095    0.117     0  02:15      0.0493      0.0531       2.086
  R0019254             JUNCTION     0.079    0.160     0  02:15      0.0404      0.0876       0.064
  R0019716             JUNCTION     0.117    1.217     0  02:15      0.0621       0.794      -0.033
  R0019946             JUNCTION     0.000    1.216     0  02:15           0       0.794       0.025
  R0013935             JUNCTION     0.076    0.076     0  02:15      0.0385      0.0385       0.155
  R0019939             JUNCTION     0.031    0.101     0  02:15      0.0142      0.0527      -0.121
  R0019944             JUNCTION     0.071    1.516     0  02:15      0.0359        1.01       0.012
  R0043703             JUNCTION     0.085    1.276     0  02:15      0.0437       0.838       0.006
  R0019945             JUNCTION     0.000    1.471     0  02:15           0       0.974      -0.009
  R0039621             JUNCTION     0.000    0.013     0  02:11           0     0.00185       1.248
  R0019838             JUNCTION     0.157    0.157     0  02:15       0.086      0.0878      -0.025
  R0039606             JUNCTION     0.000    0.248     0  02:17           0       0.178       0.115
  R0019204             JUNCTION     0.000    0.000     0  00:00           0           0       0.000 ltr
  R0019205             JUNCTION     0.000    0.000     0  00:00           0           0       0.000 ltr
  R0019849             JUNCTION     0.000    0.204     0  02:15           0       0.137       0.037
  R0019371             JUNCTION     0.000    0.000     0  00:00           0           0       0.000 ltr
  R0019718             JUNCTION     0.102    0.681     0  02:15      0.0534       0.446      -1.720
  R0021442             JUNCTION     0.115    0.187     0  02:15      0.0605        0.13       0.092
  R0019247             JUNCTION     0.057    0.211     0  02:15       0.028       0.156       0.072
  R0019719             JUNCTION     0.059    0.302     0  02:15      0.0295       0.178       0.765
  R0019767             JUNCTION     0.000    2.012     0  02:16           0        1.38      -0.007
  R0019768             JUNCTION     0.000    2.022     0  02:16           0        1.38       0.019
  R0021453             JUNCTION     0.070    0.070     0  02:15      0.0353      0.0353      -0.042
  R0019839             JUNCTION     0.155    0.294     0  02:15       0.085       0.171      -0.016
  R0019717             JUNCTION     0.189    1.128     0  02:15       0.106       0.736       0.543
  R0019252             JUNCTION     0.091    0.091     0  02:15      0.0472      0.0472      -0.061
  R0019721             JUNCTION     0.027    0.099     0  02:15      0.0125      0.0548       0.100
  R0019942             JUNCTION     0.000    0.124     0  02:13           0      0.0839      -0.401
  R0019206             JUNCTION     0.000    0.000     0  00:00           0           0       0.000 ltr
  R0019840             JUNCTION     0.000    0.429     0  02:15           0       0.284       0.002
  R0043702             JUNCTION     0.155    0.575     0  02:15      0.0851       0.369       0.622
  R0019723             JUNCTION     0.066    0.081     0  02:15      0.0332      0.0421      -0.300
  R0019724             JUNCTION     0.020    0.022     0  02:14     0.00891     0.00892      -0.385
  R0021433             JUNCTION     0.094    0.094     0  02:15      0.0492      0.0492      -0.094
  R0021435             JUNCTION     0.061    0.133     0  02:15      0.0307       0.078      -0.167
  R0019769             OUTFALL      0.000    2.037     0  02:16           0        1.38       0.000
  
  
  **********************
  Node Surcharge Summary
  **********************
  
  Surcharging occurs when water rises above the top of the highest conduit.
  ---------------------------------------------------------------------
                                               Max. Height   Min. Depth
                                   Hours       Above Crown    Below Rim
  Node                 Type      Surcharged         Meters       Meters
  ---------------------------------------------------------------------
  R0019466             JUNCTION        0.18          0.942        1.568
  R0019468             JUNCTION        0.17          0.836        1.594
  R0019831             JUNCTION        0.11          1.234        0.126
  R0019825             JUNCTION        0.15          1.200        0.000
  R0019368             JUNCTION        0.05          0.456        0.594
  R0019345             JUNCTION        0.10          0.628        1.122
  R0019346             JUNCTION        0.06          0.298        1.442
  R0043600             JUNCTION        0.08          0.156        2.424
  R0019373             JUNCTION        0.11          0.690        1.810
  R0019254             JUNCTION        0.13          1.437        0.393
  R0013935             JUNCTION        0.11          1.012        0.308
  R0019939             JUNCTION        0.18          1.042        0.578
  R0019849             JUNCTION        0.19          0.858        1.072
  R0021442             JUNCTION        0.21          1.750        0.000
  R0019247             JUNCTION        0.11          0.646        1.214
  R0019719             JUNCTION        0.01          0.049        1.751
  R0019252             JUNCTION        0.10          1.640        0.000
  R0019721             JUNCTION        0.06          0.313        1.247
  R0019942             JUNCTION        0.16          0.859        0.791
  R0019840             JUNCTION        0.02          0.207        2.363
  R0043702             JUNCTION        0.05          0.403        2.507
  R0019723             JUNCTION        0.02          0.188        1.132
  R0019724             JUNCTION        0.02          0.243        1.207
  R0021433             JUNCTION        0.14          1.850        0.000
  R0021435             JUNCTION        0.18          1.810        0.000
  
  
  *********************
  Node Flooding Summary
  *********************
  
  Flooding refers to all water that overflows a node, whether it ponds or not.
  --------------------------------------------------------------------------
                                                             Total   Maximum
                                 Maximum   Time of Max       Flood    Ponded
                        Hours       Rate    Occurrence      Volume     Depth
  Node                 Flooded       CMS   days hr:min    10^6 ltr    Meters
  --------------------------------------------------------------------------
  R0019825                0.04     0.062      0  02:15       0.005     0.000
  R0021442                0.04     0.032      0  02:15       0.003     0.000
  R0019252                0.01     0.008      0  02:15       0.000     0.000
  R0021433                0.04     0.023      0  02:15       0.002     0.000
  R0021435                0.05     0.060      0  02:15       0.008     0.000
  
  
  ***********************
  Outfall Loading Summary
  ***********************
  
  -----------------------------------------------------------
                         Flow       Avg       Max       Total
                         Freq      Flow      Flow      Volume
  Outfall Node           Pcnt       CMS       CMS    10^6 ltr
  -----------------------------------------------------------
  R0019769               4.12     0.123     2.037       1.378
  -----------------------------------------------------------
  System                 4.12     0.123     2.037       1.378
  
  
  ********************
  Link Flow Summary
  ********************
  
  -----------------------------------------------------------------------------
                                 Maximum  Time of Max   Maximum    Max/    Max/
                                  |Flow|   Occurrence   |Veloc|    Full    Full
  Link                 Type          CMS  days hr:min     m/sec    Flow   Depth
  -----------------------------------------------------------------------------
  H0014431             CONDUIT     0.083     0  02:12      1.17    1.53    1.00
  H0014433             CONDUIT     0.086     0  02:15      1.21    1.09    1.00
  H0014352             CONDUIT     2.090     0  02:15      3.28    0.86    1.00
  H0014373             CONDUIT     2.018     0  02:15      4.26    0.93    0.70
  H0017981             CONDUIT     0.150     0  02:15      2.12    4.23    1.00
  H0017755             CONDUIT     0.209     0  02:14      1.67    1.70    1.00
  H0017791             CONDUIT     0.164     0  02:14      0.69    0.24    0.50
  H0017357             CONDUIT     0.116     0  02:15      1.64    1.85    1.00
  H0018216             CONDUIT     0.154     0  02:15      2.18    2.81    1.00
  H0016792             CONDUIT     1.216     0  02:15      2.16    0.70    0.83
  H0019507             CONDUIT     0.071     0  02:15      1.01    0.99    1.00
  H0019998             CONDUIT     1.523     0  02:15      3.46    0.61    0.79
  H0019576             CONDUIT     1.279     0  02:16      2.54    0.86    0.74
  H0020087             CONDUIT     0.013     0  02:11      0.28    0.06    0.67
  H0020211             CONDUIT     1.220     0  02:16      2.12    3.04    0.85
  H0018982             CONDUIT     0.248     0  02:17      0.89    0.40    0.56
  H0018753             CONDUIT     0.041     0  02:11      0.66    0.58    1.00
  H0018845             CONDUIT     0.000     0  00:00      0.00    0.00    0.00
  H0018863             CONDUIT     0.098     0  02:15      1.39    2.31    1.00
  H0019156             CONDUIT     0.000     0  00:00      0.00    0.00    0.00
  H0018929             CONDUIT     0.602     0  02:15      1.36    0.52    0.67
  H0018440             CONDUIT     0.162     0  02:13      2.29    2.90    1.00
  H0018456             CONDUIT     0.253     0  02:15      2.02    1.54    1.00
  H0018968             CONDUIT     2.022     0  02:16      4.96    0.78    0.61
  H0022036             CONDUIT     0.066     0  02:14      0.59    0.05    0.33
  H0021806             CONDUIT     0.210     0  02:15      1.67    1.86    1.00
  H0022111             CONDUIT     0.145     0  02:15      0.91    1.04    0.77
  H0021440             CONDUIT     1.131     0  02:15      2.52    0.73    0.67
  H0021704             CONDUIT     0.685     0  02:15      1.58    1.31    0.67
  H0020521             CONDUIT     0.082     0  02:15      1.16    1.67    1.00
  H0020755             CONDUIT     0.097     0  02:15      0.77    1.06    1.00
  H0020530             CONDUIT     2.032     0  02:15      3.25    1.74    1.00
  H0020618             CONDUIT     1.470     0  02:16      3.26    0.91    0.68
  H0021163             CONDUIT     0.124     0  02:13      1.76    2.08    1.00
  H0020497             CONDUIT     0.000     0  00:00      0.00    0.00    1.00
  H0024325             CONDUIT     0.288     0  02:15      1.88    0.86    1.00
  H0023585             CONDUIT     0.544     0  02:15      2.77    1.25    1.00
  H0024098             CONDUIT     0.201     0  02:15      2.85    2.35    1.00
  H0024235             CONDUIT     0.296     0  02:15      1.52    1.21    1.00
  H0024282             CONDUIT     0.000     0  00:00      0.00    0.00    0.00
  H0024308             CONDUIT     2.037     0  02:16      5.60    0.60    0.56
  H0024498             CONDUIT     0.143     0  02:14      2.02    2.22    1.00
  H0026990             CONDUIT     0.079     0  02:15      0.84    0.60    1.00
  H0041650             CONDUIT     0.382     0  02:15      0.96    0.45    0.61
  H0041011             CONDUIT     0.118     0  02:14      1.67    1.17    1.00
  H0045103             CONDUIT     0.267     0  02:17      0.85    0.33    0.59
  H0045104             CONDUIT     2.012     0  02:16      4.63    0.71    0.65
  H0045105             CONDUIT     0.026     0  02:15      0.42    0.45    1.00
  H0045106             CONDUIT     0.427     0  02:15      2.40    0.57    1.00
  H0045107             CONDUIT     0.072     0  02:15      1.01    1.18    1.00
  H0045108             CONDUIT     0.090     0  02:17      1.27    1.61    1.00
  
  
  ***************************
  Flow Classification Summary
  ***************************
  
  -------------------------------------------------------------------------------------
                      Adjusted    ---------- Fraction of Time in Flow Class ---------- 
                       /Actual         Up    Down  Sub   Sup   Up    Down  Norm  Inlet 
  Conduit               Length    Dry  Dry   Dry   Crit  Crit  Crit  Crit  Ltd   Ctrl  
  -------------------------------------------------------------------------------------
  H0014431                1.00   0.03  0.93  0.00  0.04  0.00  0.00  0.00  0.97  0.00
  H0014433                1.00   0.03  0.00  0.00  0.97  0.00  0.00  0.00  0.97  0.00
  H0014352                1.00   0.03  0.00  0.00  0.95  0.02  0.00  0.00  0.97  0.00
  H0014373                1.00   0.03  0.00  0.00  0.94  0.04  0.00  0.00  0.92  0.00
  H0017981                1.00   0.03  0.00  0.00  0.00  0.00  0.00  0.97  0.00  0.00
  H0017755                1.00   0.03  0.00  0.00  0.00  0.00  0.00  0.97  0.00  0.00
  H0017791                1.00   0.03  0.00  0.00  0.97  0.00  0.00  0.00  0.97  0.00
  H0017357                1.00   0.03  0.97  0.00  0.00  0.00  0.00  0.00  0.97  0.00
  H0018216                1.00   0.03  0.93  0.00  0.04  0.00  0.00  0.00  0.97  0.00
  H0016792                1.00   0.03  0.92  0.00  0.05  0.00  0.00  0.00  0.97  0.00
  H0019507                1.00   0.03  0.00  0.00  0.97  0.00  0.00  0.00  0.97  0.00
  H0019998                1.00   0.03  0.00  0.00  0.94  0.03  0.00  0.00  0.05  0.00
  H0019576                1.00   0.03  0.00  0.00  0.96  0.01  0.00  0.00  0.05  0.00
  H0020087                1.00   0.03  0.96  0.00  0.01  0.00  0.00  0.00  0.97  0.00
  H0020211                1.00   0.03  0.00  0.00  0.97  0.00  0.00  0.00  0.92  0.00
  H0018982                1.00   0.03  0.00  0.00  0.97  0.00  0.00  0.00  0.94  0.00
  H0018753                1.00   0.03  0.00  0.00  0.97  0.00  0.00  0.00  0.97  0.00
  H0018845                1.00   1.00  0.00  0.00  0.00  0.00  0.00  0.00  0.00  0.00
  H0018863                1.00   0.03  0.00  0.00  0.97  0.00  0.00  0.00  0.97  0.00
  H0019156                1.00   1.00  0.00  0.00  0.00  0.00  0.00  0.00  0.00  0.00
  H0018929                1.00   0.03  0.93  0.00  0.04  0.00  0.00  0.00  0.97  0.00
  H0018440                1.00   0.03  0.00  0.00  0.97  0.00  0.00  0.00  0.97  0.00
  H0018456                1.00   0.03  0.00  0.00  0.97  0.00  0.00  0.00  0.97  0.00
  H0018968                1.00   0.03  0.92  0.00  0.02  0.04  0.00  0.00  0.94  0.00
  H0022036                1.00   0.03  0.00  0.00  0.01  0.00  0.00  0.96  0.01  0.00
  H0021806                1.00   0.03  0.93  0.00  0.04  0.00  0.00  0.00  0.97  0.00
  H0022111                1.00   0.03  0.00  0.00  0.97  0.00  0.00  0.00  0.00  0.00
  H0021440                1.00   0.03  0.00  0.00  0.95  0.02  0.00  0.00  0.02  0.00
  H0021704                1.00   0.03  0.00  0.00  0.00  0.00  0.00  0.97  0.00  0.00
  H0020521                1.00   0.03  0.00  0.00  0.97  0.00  0.00  0.00  0.97  0.00
  H0020755                1.00   0.03  0.94  0.00  0.04  0.00  0.00  0.00  0.97  0.00
  H0020530                1.00   0.03  0.00  0.00  0.96  0.02  0.00  0.00  0.00  0.00
  H0020618                1.00   0.03  0.00  0.00  0.95  0.03  0.00  0.00  0.93  0.00
  H0021163                1.00   0.03  0.00  0.00  0.97  0.00  0.00  0.00  0.94  0.00
  H0020497                1.20   0.03  0.97  0.00  0.00  0.00  0.00  0.00  0.00  0.00
  H0024325                1.00   0.03  0.00  0.00  0.95  0.02  0.00  0.00  0.94  0.00
  H0023585                1.00   0.03  0.00  0.00  0.00  0.00  0.00  0.97  0.00  0.00
  H0024098                1.00   0.03  0.93  0.00  0.04  0.00  0.00  0.00  0.97  0.00
  H0024235                1.00   0.03  0.00  0.00  0.00  0.00  0.00  0.97  0.00  0.00
  H0024282                1.00   1.00  0.00  0.00  0.00  0.00  0.00  0.00  0.00  0.00
  H0024308                1.00   0.03  0.00  0.00  0.92  0.05  0.00  0.00  0.01  0.00
  H0024498                1.00   0.03  0.00  0.00  0.00  0.00  0.00  0.97  0.00  0.00
  H0026990                1.00   0.03  0.00  0.00  0.97  0.00  0.00  0.00  0.97  0.00
  H0041650                1.00   0.96  0.01  0.00  0.03  0.00  0.00  0.00  0.96  0.00
  H0041011                1.00   0.03  0.00  0.00  0.97  0.00  0.00  0.00  0.97  0.00
  H0045103                1.00   0.03  0.00  0.00  0.97  0.00  0.00  0.00  0.95  0.00
  H0045104                1.00   0.03  0.00  0.00  0.93  0.04  0.00  0.00  0.05  0.00
  H0045105                1.00   0.03  0.00  0.00  0.97  0.00  0.00  0.00  0.97  0.00
  H0045106                1.00   0.03  0.93  0.00  0.02  0.02  0.00  0.00  0.97  0.00
  H0045107                1.00   0.03  0.00  0.00  0.97  0.00  0.00  0.00  0.97  0.00
  H0045108                1.00   0.03  0.00  0.00  0.97  0.00  0.00  0.00  0.97  0.00
  
  
  *************************
  Conduit Surcharge Summary
  *************************
  
  ----------------------------------------------------------------------------
                                                           Hours        Hours 
                         --------- Hours Full --------   Above Full   Capacity
  Conduit                Both Ends  Upstream  Dnstream   Normal Flow   Limited
  ----------------------------------------------------------------------------
  H0014431                    0.17      0.18      0.17      0.19         0.17
  H0014433                    0.11      0.11      0.15      0.02         0.02
  H0014352                    0.01      0.01      0.05      0.01         0.01
  H0017981                    0.07      0.10      0.07      0.21         0.09
  H0017755                    0.06      0.08      0.06      0.13         0.07
  H0017357                    0.01      0.01      0.11      0.06         0.01
  H0018216                    0.10      0.13      0.10      0.15         0.12
  H0019507                    0.11      0.11      0.18      0.01         0.01
  H0020211                    0.01      0.01      0.01      0.18         0.01
  H0018753                    0.11      0.11      0.18      0.01         0.01
  H0018863                    0.18      0.18      0.19      0.11         0.10
  H0018440                    0.15      0.21      0.15      0.24         0.19
  H0018456                    0.05      0.06      0.05      0.09         0.06
  H0021806                    0.08      0.11      0.08      0.14         0.10
  H0022111                    0.01      0.01      0.01      0.01         0.01
  H0021704                    0.01      0.01      0.01      0.07         0.01
  H0020521                    0.10      0.10      0.13      0.08         0.08
  H0020755                    0.06      0.06      0.06      0.01         0.01
  H0020530                    0.01      0.05      0.01      0.10         0.04
  H0021163                    0.14      0.15      0.16      0.15         0.13
  H0024325                    0.01      0.01      0.02      0.01         0.01
  H0023585                    0.01      0.05      0.02      0.06         0.04
  H0024098                    0.19      0.19      0.23      0.17         0.15
  H0024235                    0.01      0.01      0.01      0.05         0.01
  H0024498                    0.03      0.17      0.03      0.21         0.14
  H0026990                    0.02      0.02      0.06      0.01         0.01
  H0041011                    0.16      0.16      0.19      0.06         0.06
  H0045105                    0.02      0.02      0.03      0.01         0.01
  H0045106                    0.02      0.02      0.05      0.01         0.01
  H0045107                    0.14      0.14      0.18      0.04         0.04
  H0045108                    0.18      0.18      0.21      0.13         0.13
  

  Analysis begun on:  Fri Mar 22 15:55:53 2024
  Analysis ended on:  Fri Mar 22 15:56:02 2024
  Total elapsed time: 00:00:09