
  EPA STORM WATER MANAGEMENT MODEL - VERSION 5.2 (Build 5.2.4)
  PYSWMM TOOLKIT API - VERSION v1.0 (2023-11-27)
  ------------------------------------------------------------

  Gievenbeck_2021-09-27 15 55 00_hN5 5 
  
  ****************
  Analysis Options
  ****************
  Flow Units ............... CMS
  Process Models:
    Rainfall/Runoff ........ YES
    RDII ................... NO
    Snowmelt ............... NO
    Groundwater ............ NO
    Flow Routing ........... YES
    Ponding Allowed ........ NO
    Water Quality .......... NO
  Infiltration Method ...... HORTON
  Flow Routing Method ...... DYNWAVE
  Surcharge Method ......... SLOT
  Starting Date ............ 01/01/2024 00:00:00
  Ending Date .............. 01/04/2024 04:00:00
  Antecedent Dry Days ...... 14.0
  Report Time Step ......... 00:01:00
  Wet Time Step ............ 00:01:00
  Dry Time Step ............ 00:01:00
  Routing Time Step ........ 1.00 sec
  Variable Time Step ....... YES
  Maximum Trials ........... 8
  Number of Threads ........ 1
  Head Tolerance ........... 0.001500 m
  
  
  **************************        Volume         Depth
  Runoff Quantity Continuity     hectare-m            mm
  **************************     ---------       -------
  Total Precipitation ......         0.056         5.500
  Evaporation Loss .........         0.010         0.987
  Infiltration Loss ........         0.030         3.000
  Surface Runoff ...........         0.015         1.516
  Final Storage ............         0.000         0.000
  Continuity Error (%) .....        -0.054
  
  
  **************************        Volume        Volume
  Flow Routing Continuity        hectare-m      10^6 ltr
  **************************     ---------     ---------
  Dry Weather Inflow .......         0.000         0.000
  Wet Weather Inflow .......         0.015         0.153
  Groundwater Inflow .......         0.000         0.000
  RDII Inflow ..............         0.000         0.000
  External Inflow ..........         0.000         0.000
  External Outflow .........         0.015         0.153
  Flooding Loss ............         0.000         0.000
  Evaporation Loss .........         0.000         0.000
  Exfiltration Loss ........         0.000         0.000
  Initial Stored Volume ....         0.000         0.000
  Final Stored Volume ......         0.000         0.000
  Continuity Error (%) .....         0.000
  
  
  ***************************
  Time-Step Critical Elements
  ***************************
  None
  
  
  ********************************
  Highest Flow Instability Indexes
  ********************************
  All links are stable.
  
  
  *********************************
  Most Frequent Nonconverging Nodes
  *********************************
  Convergence obtained at all time steps.
  
  
  *************************
  Routing Time Step Summary
  *************************
  Minimum Time Step           :     0.50 sec
  Average Time Step           :     1.00 sec
  Maximum Time Step           :     1.00 sec
  % of Time in Steady State   :     0.00
  Average Iterations per Step :     2.00
  % of Steps Not Converging   :     0.00
  Time Step Frequencies       :
      1.000 -  0.871 sec      :   100.00 %
      0.871 -  0.758 sec      :     0.00 %
      0.758 -  0.660 sec      :     0.00 %
      0.660 -  0.574 sec      :     0.00 %
      0.574 -  0.500 sec      :     0.00 %
  
  
  ***************************
  Subcatchment Runoff Summary
  ***************************
  
  ------------------------------------------------------------------------------------------------------------------------------
                            Total      Total      Total      Total     Imperv       Perv      Total       Total     Peak  Runoff
                           Precip      Runon       Evap      Infil     Runoff     Runoff     Runoff      Runoff   Runoff   Coeff
  Subcatchment                 mm         mm         mm         mm         mm         mm         mm    10^6 ltr      CMS
  ------------------------------------------------------------------------------------------------------------------------------
  EZG_368                    5.50       0.00       0.98       3.02       1.77       0.00       1.51        0.01     0.01   0.274
  EZG_392                    5.50       0.00       0.98       3.02       1.78       0.00       1.51        0.00     0.01   0.274
  EZG_352                    5.50       0.00       0.98       3.02       1.77       0.00       1.50        0.01     0.01   0.273
  EZG_372                    5.50       0.00       0.97       3.02       1.78       0.00       1.52        0.00     0.00   0.276
  EZG_416                    5.50       0.00       0.98       3.02       1.78       0.00       1.51        0.00     0.01   0.275
  EZG_388                    5.50       0.00       0.98       3.02       1.77       0.00       1.51        0.01     0.01   0.274
  EZG_394                    5.50       0.00       0.98       3.02       1.78       0.00       1.51        0.00     0.01   0.275
  EZG_400                    5.50       0.00       0.98       3.02       1.78       0.00       1.51        0.00     0.01   0.275
  EZG_390                    5.50       0.00       0.98       3.02       1.78       0.00       1.51        0.00     0.01   0.274
  EZG_350                    5.50       0.00       0.98       3.02       1.77       0.00       1.51        0.01     0.01   0.274
  EZG_370                    5.50       0.00       0.98       3.02       1.77       0.00       1.51        0.01     0.01   0.274
  EZG_398                    5.50       0.00       0.97       3.02       1.79       0.00       1.52        0.00     0.00   0.276
  EZG_382                    5.50       0.00       0.97       3.02       1.79       0.00       1.52        0.00     0.00   0.276
  EZG_374                    5.50       0.00       1.18       2.52       2.12       0.00       1.80        0.01     0.01   0.328
  EZG_412                    5.50       0.00       0.96       3.02       1.79       0.00       1.53        0.00     0.00   0.277
  EZG_344                    5.50       0.00       0.98       3.02       1.78       0.00       1.51        0.00     0.00   0.275
  EZG_376                    5.50       0.00       0.97       3.02       1.78       0.00       1.51        0.00     0.00   0.275
  EZG_356                    5.50       0.00       0.99       3.01       1.77       0.00       1.50        0.01     0.01   0.273
  EZG_386                    5.50       0.00       0.99       3.01       1.76       0.00       1.50        0.01     0.01   0.272
  EZG_380                    5.50       0.00       0.98       3.02       1.77       0.00       1.51        0.01     0.01   0.274
  EZG_378                    5.50       0.00       0.98       3.02       1.77       0.00       1.51        0.01     0.01   0.274
  EZG_414                    5.50       0.00       0.97       3.02       1.79       0.00       1.52        0.00     0.00   0.276
  EZG_402                    5.50       0.00       0.98       3.02       1.78       0.00       1.51        0.00     0.01   0.274
  EZG_358                    5.50       0.00       0.99       3.01       1.77       0.00       1.50        0.01     0.01   0.273
  EZG_364                    5.50       0.00       0.99       3.01       1.77       0.00       1.50        0.01     0.01   0.273
  EZG_410                    5.50       0.00       0.97       3.02       1.78       0.00       1.51        0.00     0.00   0.275
  EZG_366                    5.50       0.00       0.97       3.02       1.78       0.00       1.51        0.00     0.00   0.275
  EZG_18259                  5.50       0.00       0.97       3.02       1.78       0.00       1.51        0.00     0.00   0.275
  EZG_18258                  5.50       0.00       0.96       3.02       1.79       0.00       1.52        0.00     0.00   0.277
  EZG_346                    5.50       0.00       0.96       3.07       1.74       0.00       1.48        0.01     0.01   0.269
  EZG_348                    5.50       0.00       0.95       3.07       1.74       0.00       1.48        0.00     0.00   0.270
  
  
  ******************
  Node Depth Summary
  ******************
  
  ---------------------------------------------------------------------------------
                                 Average  Maximum  Maximum  Time of Max    Reported
                                   Depth    Depth      HGL   Occurrence   Max Depth
  Node                 Type       Meters   Meters   Meters  days hr:min      Meters
  ---------------------------------------------------------------------------------
  R0019466             JUNCTION     0.00     0.10    69.55     0  04:10        0.10
  R0019468             JUNCTION     0.00     0.10    69.41     0  04:11        0.10
  R0019831             JUNCTION     0.00     0.06    69.23     0  04:10        0.05
  R0019825             JUNCTION     0.00     0.09    68.93     0  04:10        0.09
  R0019843             JUNCTION     0.00     0.13    67.76     0  04:15        0.13
  R0019368             JUNCTION     0.00     0.19    66.98     0  04:15        0.19
  R0019369             JUNCTION     0.00     0.14    66.73     0  04:15        0.14
  R0019370             JUNCTION     0.00     0.12    66.02     0  04:16        0.12
  R0019345             JUNCTION     0.00     0.10    70.00     0  04:11        0.10
  R0019346             JUNCTION     0.00     0.09    69.89     0  04:12        0.09
  R0043600             JUNCTION     0.00     0.10    69.77     0  04:13        0.10
  R0019203             JUNCTION     0.00     0.11    69.65     0  04:13        0.11
  R0043594             JUNCTION     0.00     0.08    69.81     0  04:11        0.08
  R0021458             JUNCTION     0.00     0.11    69.76     0  04:11        0.11
  R0019202             JUNCTION     0.00     0.09    69.67     0  04:13        0.09
  R0019373             JUNCTION     0.00     0.06    69.73     0  04:10        0.06
  R0019254             JUNCTION     0.00     0.09    70.13     0  04:11        0.09
  R0019716             JUNCTION     0.00     0.12    69.13     0  04:14        0.12
  R0019946             JUNCTION     0.00     0.20    68.82     0  04:15        0.20
  R0013935             JUNCTION     0.00     0.05    68.88     0  04:10        0.05
  R0019939             JUNCTION     0.00     0.08    68.65     0  04:10        0.08
  R0019944             JUNCTION     0.00     0.11    68.39     0  04:15        0.11
  R0043703             JUNCTION     0.00     0.13    68.73     0  04:15        0.13
  R0019945             JUNCTION     0.00     0.14    68.54     0  04:15        0.14
  R0039621             JUNCTION     0.00     0.00    69.57     0  00:00        0.00
  R0019838             JUNCTION     0.00     0.09    69.55     0  04:10        0.09
  R0039606             JUNCTION     0.00     0.09    69.68     0  04:13        0.09
  R0019204             JUNCTION     0.00     0.00    69.91     0  00:00        0.00
  R0019205             JUNCTION     0.00     0.00    69.62     0  00:00        0.00
  R0019849             JUNCTION     0.00     0.09    68.61     0  04:11        0.09
  R0019371             JUNCTION     0.00     0.00    70.41     0  00:00        0.00
  R0019718             JUNCTION     0.00     0.16    69.58     0  04:14        0.16
  R0021442             JUNCTION     0.00     0.11    70.16     0  04:11        0.11
  R0019247             JUNCTION     0.00     0.11    69.99     0  04:11        0.11
  R0019719             JUNCTION     0.00     0.09    69.77     0  04:12        0.09
  R0019767             JUNCTION     0.00     0.13    64.86     0  04:16        0.13
  R0019768             JUNCTION     0.00     0.11    63.88     0  04:16        0.11
  R0021453             JUNCTION     0.00     0.04    69.99     0  04:10        0.04
  R0019839             JUNCTION     0.00     0.08    69.47     0  04:11        0.08
  R0019717             JUNCTION     0.00     0.13    69.47     0  04:14        0.13
  R0019252             JUNCTION     0.00     0.07    70.26     0  04:10        0.07
  R0019721             JUNCTION     0.00     0.07    69.94     0  04:11        0.07
  R0019942             JUNCTION     0.00     0.07    68.72     0  04:11        0.07
  R0019206             JUNCTION     0.00     0.00    69.07     0  00:00        0.00
  R0019840             JUNCTION     0.00     0.07    69.04     0  04:11        0.07
  R0043702             JUNCTION     0.00     0.10    68.80     0  04:11        0.10
  R0019723             JUNCTION     0.00     0.06    70.14     0  04:10        0.06
  R0019724             JUNCTION     0.00     0.03    70.19     0  04:10        0.03
  R0021433             JUNCTION     0.00     0.06    70.45     0  04:10        0.06
  R0021435             JUNCTION     0.00     0.08    70.26     0  04:10        0.08
  R0019769             OUTFALL      0.00     0.11    63.49     0  04:16        0.11
  
  
  *******************
  Node Inflow Summary
  *******************
  
  -------------------------------------------------------------------------------------------------
                                  Maximum  Maximum                  Lateral       Total        Flow
                                  Lateral    Total  Time of Max      Inflow      Inflow     Balance
                                   Inflow   Inflow   Occurrence      Volume      Volume       Error
  Node                 Type           CMS      CMS  days hr:min    10^6 ltr    10^6 ltr     Percent
  -------------------------------------------------------------------------------------------------
  R0019466             JUNCTION     0.007    0.013     0  04:10     0.00622      0.0116      -0.067
  R0019468             JUNCTION     0.005    0.016     0  04:10     0.00362      0.0153       0.070
  R0019831             JUNCTION     0.006    0.006     0  04:10     0.00489     0.00489      -0.172
  R0019825             JUNCTION     0.006    0.012     0  04:10      0.0049      0.0098      -0.007
  R0019843             JUNCTION     0.000    0.116     0  04:14           0       0.153      -0.028
  R0019368             JUNCTION     0.000    0.115     0  04:15           0       0.154       0.003
  R0019369             JUNCTION     0.000    0.115     0  04:15           0       0.154       0.004
  R0019370             JUNCTION     0.000    0.115     0  04:15           0       0.154       0.008
  R0019345             JUNCTION     0.000    0.010     0  04:11           0     0.00959       0.210
  R0019346             JUNCTION     0.001    0.017     0  04:11    0.000609       0.016       0.072
  R0043600             JUNCTION     0.000    0.018     0  04:12           0      0.0186       0.250
  R0019203             JUNCTION     0.002    0.038     0  04:13     0.00134      0.0415      -0.058
  R0043594             JUNCTION     0.010    0.014     0  04:10     0.00888      0.0127      -0.296
  R0021458             JUNCTION     0.008    0.019     0  04:10     0.00691      0.0196      -0.087
  R0019202             JUNCTION     0.003    0.019     0  04:12     0.00205      0.0217      -0.036
  R0019373             JUNCTION     0.007    0.007     0  04:10     0.00541     0.00541      -0.082
  R0019254             JUNCTION     0.006    0.011     0  04:10      0.0044     0.00958      -0.117
  R0019716             JUNCTION     0.008    0.069     0  04:14     0.00686      0.0854      -0.071
  R0019946             JUNCTION     0.000    0.068     0  04:14           0      0.0855       0.081
  R0013935             JUNCTION     0.005    0.005     0  04:10     0.00419     0.00419      -0.172
  R0019939             JUNCTION     0.002    0.007     0  04:10      0.0015      0.0057      -0.034
  R0019944             JUNCTION     0.005    0.084     0  04:15     0.00389        0.11       0.003
  R0043703             JUNCTION     0.006    0.071     0  04:15     0.00478      0.0902       0.006
  R0019945             JUNCTION     0.000    0.082     0  04:15           0       0.106       0.002
  R0039621             JUNCTION     0.000    0.000     0  00:00           0           0       0.000 ltr
  R0019838             JUNCTION     0.010    0.010     0  04:10     0.00962     0.00962      -0.007
  R0039606             JUNCTION     0.000    0.018     0  04:12           0      0.0196       0.258
  R0019204             JUNCTION     0.000    0.000     0  00:00           0           0       0.000 ltr
  R0019205             JUNCTION     0.000    0.000     0  00:00           0           0       0.000 ltr
  R0019849             JUNCTION     0.000    0.017     0  04:11           0      0.0155       0.005
  R0019371             JUNCTION     0.000    0.000     0  00:00           0           0       0.000 ltr
  R0019718             JUNCTION     0.007    0.042     0  04:13     0.00587      0.0474       0.049
  R0021442             JUNCTION     0.008    0.016     0  04:10     0.00684      0.0155      -0.045
  R0019247             JUNCTION     0.004    0.019     0  04:11     0.00302      0.0185      -0.195
  R0019719             JUNCTION     0.004    0.019     0  04:11     0.00318      0.0192      -0.016
  R0019767             JUNCTION     0.000    0.115     0  04:16           0       0.153      -0.001
  R0019768             JUNCTION     0.000    0.115     0  04:16           0       0.153       0.013
  R0021453             JUNCTION     0.005    0.005     0  04:10     0.00382     0.00382       0.420
  R0019839             JUNCTION     0.010    0.018     0  04:10     0.00951      0.0191      -0.057
  R0019717             JUNCTION     0.012    0.064     0  04:14       0.012      0.0786      -0.000
  R0019252             JUNCTION     0.006    0.006     0  04:10     0.00517     0.00517      -0.173
  R0019721             JUNCTION     0.002    0.007     0  04:10     0.00132     0.00586       0.005
  R0019942             JUNCTION     0.000    0.011     0  04:10           0      0.0098       0.086
  R0019206             JUNCTION     0.000    0.000     0  00:00           0           0       0.000 ltr
  R0019840             JUNCTION     0.000    0.033     0  04:11           0      0.0344       0.033
  R0043702             JUNCTION     0.010    0.041     0  04:11     0.00952      0.0439      -0.007
  R0019723             JUNCTION     0.005    0.006     0  04:10     0.00359     0.00453      -0.203
  R0019724             JUNCTION     0.001    0.001     0  04:10    0.000932    0.000932      -0.222
  R0021433             JUNCTION     0.007    0.007     0  04:10     0.00538     0.00538      -0.173
  R0021435             JUNCTION     0.004    0.010     0  04:10      0.0033     0.00868       0.068
  R0019769             OUTFALL      0.000    0.115     0  04:16           0       0.153       0.000
  
  
  **********************
  Node Surcharge Summary
  **********************
  
  No nodes were surcharged.
  
  
  *********************
  Node Flooding Summary
  *********************
  
  No nodes were flooded.
  
  
  ***********************
  Outfall Loading Summary
  ***********************
  
  -----------------------------------------------------------
                         Flow       Avg       Max       Total
                         Freq      Flow      Flow      Volume
  Outfall Node           Pcnt       CMS       CMS    10^6 ltr
  -----------------------------------------------------------
  R0019769               4.87     0.012     0.115       0.153
  -----------------------------------------------------------
  System                 4.87     0.012     0.115       0.153
  
  
  ********************
  Link Flow Summary
  ********************
  
  -----------------------------------------------------------------------------
                                 Maximum  Time of Max   Maximum    Max/    Max/
                                  |Flow|   Occurrence   |Veloc|    Full    Full
  Link                 Type          CMS  days hr:min     m/sec    Flow   Depth
  -----------------------------------------------------------------------------
  H0014431             CONDUIT     0.013     0  04:10      0.62    0.23    0.33
  H0014433             CONDUIT     0.006     0  04:10      0.45    0.07    0.24
  H0014352             CONDUIT     0.115     0  04:15      1.49    0.05    0.18
  H0014373             CONDUIT     0.115     0  04:15      1.95    0.05    0.15
  H0017981             CONDUIT     0.010     0  04:12      0.58    0.28    0.29
  H0017755             CONDUIT     0.018     0  04:13      0.76    0.14    0.24
  H0017791             CONDUIT     0.012     0  04:11      0.35    0.02    0.11
  H0017357             CONDUIT     0.000     0  00:00      0.00    0.00    0.10
  H0018216             CONDUIT     0.010     0  04:11      0.57    0.18    0.31
  H0016792             CONDUIT     0.068     0  04:14      0.87    0.04    0.18
  H0019507             CONDUIT     0.005     0  04:10      0.44    0.07    0.22
  H0019998             CONDUIT     0.084     0  04:15      1.61    0.03    0.14
  H0019576             CONDUIT     0.071     0  04:15      1.17    0.05    0.15
  H0020087             CONDUIT     0.000     0  00:00      0.00    0.00    0.09
  H0020211             CONDUIT     0.068     0  04:15      0.83    0.17    0.19
  H0018982             CONDUIT     0.018     0  04:12      0.47    0.03    0.11
  H0018753             CONDUIT     0.006     0  04:10      0.41    0.09    0.26
  H0018845             CONDUIT     0.000     0  00:00      0.00    0.00    0.00
  H0018863             CONDUIT     0.007     0  04:10      0.41    0.15    0.28
  H0019156             CONDUIT     0.000     0  00:00      0.00    0.00    0.00
  H0018929             CONDUIT     0.037     0  04:13      0.64    0.03    0.15
  H0018440             CONDUIT     0.016     0  04:11      0.68    0.28    0.37
  H0018456             CONDUIT     0.017     0  04:12      0.79    0.10    0.22
  H0018968             CONDUIT     0.115     0  04:16      2.21    0.04    0.14
  H0022036             CONDUIT     0.005     0  04:10      0.46    0.00    0.05
  H0021806             CONDUIT     0.018     0  04:12      0.70    0.16    0.26
  H0022111             CONDUIT     0.009     0  04:11      0.41    0.06    0.17
  H0021440             CONDUIT     0.064     0  04:14      1.22    0.04    0.14
  H0021704             CONDUIT     0.040     0  04:14      0.65    0.08    0.15
  H0020521             CONDUIT     0.006     0  04:10      0.40    0.12    0.26
  H0020755             CONDUIT     0.007     0  04:11      0.38    0.07    0.20
  H0020530             CONDUIT     0.115     0  04:15      1.41    0.10    0.19
  H0020618             CONDUIT     0.082     0  04:15      1.52    0.05    0.14
  H0021163             CONDUIT     0.011     0  04:10      0.76    0.18    0.26
  H0020497             CONDUIT     0.000     0  00:00      0.00    0.00    0.22
  H0024325             CONDUIT     0.018     0  04:11      0.96    0.05    0.15
  H0023585             CONDUIT     0.040     0  04:12      1.39    0.09    0.21
  H0024098             CONDUIT     0.017     0  04:11      0.84    0.20    0.35
  H0024235             CONDUIT     0.019     0  04:12      0.76    0.08    0.18
  H0024282             CONDUIT     0.000     0  00:00      0.00    0.00    0.00
  H0024308             CONDUIT     0.115     0  04:16      2.49    0.03    0.13
  H0024498             CONDUIT     0.015     0  04:11      0.78    0.24    0.32
  H0026990             CONDUIT     0.006     0  04:10      0.44    0.04    0.16
  H0041650             CONDUIT     0.019     0  04:13      0.48    0.02    0.11
  H0041011             CONDUIT     0.011     0  04:11      0.72    0.11    0.26
  H0045103             CONDUIT     0.018     0  04:13      0.51    0.02    0.10
  H0045104             CONDUIT     0.115     0  04:16      2.08    0.04    0.14
  H0045105             CONDUIT     0.001     0  04:10      0.22    0.02    0.15
  H0045106             CONDUIT     0.033     0  04:11      1.43    0.04    0.17
  H0045107             CONDUIT     0.006     0  04:10      0.46    0.10    0.25
  H0045108             CONDUIT     0.009     0  04:10      0.48    0.17    0.32
  
  
  ***************************
  Flow Classification Summary
  ***************************
  
  -------------------------------------------------------------------------------------
                      Adjusted    ---------- Fraction of Time in Flow Class ---------- 
                       /Actual         Up    Down  Sub   Sup   Up    Down  Norm  Inlet 
  Conduit               Length    Dry  Dry   Dry   Crit  Crit  Crit  Crit  Ltd   Ctrl  
  -------------------------------------------------------------------------------------
  H0014431                1.00   0.05  0.00  0.00  0.95  0.00  0.00  0.00  0.94  0.00
  H0014433                1.00   0.05  0.00  0.00  0.95  0.00  0.00  0.00  0.95  0.00
  H0014352                1.00   0.05  0.00  0.00  0.92  0.03  0.00  0.00  0.95  0.00
  H0014373                1.00   0.05  0.00  0.00  0.91  0.04  0.00  0.00  0.89  0.00
  H0017981                1.00   0.05  0.00  0.00  0.00  0.00  0.00  0.95  0.00  0.00
  H0017755                1.00   0.05  0.00  0.00  0.00  0.00  0.00  0.95  0.00  0.00
  H0017791                1.00   0.05  0.00  0.00  0.95  0.00  0.00  0.00  0.95  0.00
  H0017357                1.00   0.05  0.95  0.00  0.00  0.00  0.00  0.00  0.00  0.00
  H0018216                1.00   0.05  0.90  0.00  0.05  0.00  0.00  0.00  0.95  0.00
  H0016792                1.00   0.05  0.89  0.00  0.06  0.00  0.00  0.00  0.95  0.00
  H0019507                1.00   0.05  0.00  0.00  0.95  0.00  0.00  0.00  0.95  0.00
  H0019998                1.00   0.05  0.00  0.00  0.91  0.04  0.00  0.00  0.06  0.00
  H0019576                1.00   0.05  0.00  0.00  0.93  0.01  0.00  0.00  0.06  0.00
  H0020087                1.00   0.05  0.95  0.00  0.00  0.00  0.00  0.00  0.00  0.00
  H0020211                1.00   0.05  0.00  0.00  0.95  0.00  0.00  0.00  0.89  0.00
  H0018982                1.00   0.05  0.00  0.00  0.95  0.00  0.00  0.00  0.91  0.00
  H0018753                1.00   0.05  0.00  0.00  0.95  0.00  0.00  0.00  0.95  0.00
  H0018845                1.00   1.00  0.00  0.00  0.00  0.00  0.00  0.00  0.00  0.00
  H0018863                1.00   0.05  0.00  0.00  0.95  0.00  0.00  0.00  0.95  0.00
  H0019156                1.00   1.00  0.00  0.00  0.00  0.00  0.00  0.00  0.00  0.00
  H0018929                1.00   0.05  0.90  0.00  0.05  0.00  0.00  0.00  0.95  0.00
  H0018440                1.00   0.05  0.00  0.00  0.95  0.00  0.00  0.00  0.94  0.00
  H0018456                1.00   0.05  0.00  0.00  0.95  0.00  0.00  0.00  0.95  0.00
  H0018968                1.00   0.05  0.89  0.00  0.02  0.05  0.00  0.00  0.91  0.00
  H0022036                1.00   0.05  0.00  0.00  0.00  0.00  0.00  0.94  0.00  0.00
  H0021806                1.00   0.05  0.90  0.00  0.05  0.00  0.00  0.00  0.94  0.00
  H0022111                1.00   0.05  0.00  0.00  0.95  0.00  0.00  0.00  0.00  0.00
  H0021440                1.00   0.05  0.00  0.00  0.92  0.03  0.00  0.00  0.01  0.00
  H0021704                1.00   0.05  0.00  0.00  0.00  0.00  0.00  0.95  0.00  0.00
  H0020521                1.00   0.05  0.00  0.00  0.95  0.00  0.00  0.00  0.95  0.00
  H0020755                1.00   0.05  0.90  0.00  0.04  0.00  0.00  0.00  0.95  0.00
  H0020530                1.00   0.05  0.00  0.00  0.92  0.02  0.00  0.00  0.00  0.00
  H0020618                1.00   0.05  0.00  0.00  0.91  0.03  0.00  0.00  0.89  0.00
  H0021163                1.00   0.05  0.00  0.00  0.95  0.00  0.00  0.00  0.91  0.00
  H0020497                1.20   0.05  0.95  0.00  0.00  0.00  0.00  0.00  0.00  0.00
  H0024325                1.00   0.05  0.00  0.00  0.92  0.03  0.00  0.00  0.91  0.00
  H0023585                1.00   0.05  0.00  0.00  0.00  0.00  0.00  0.95  0.00  0.00
  H0024098                1.00   0.05  0.90  0.00  0.05  0.00  0.00  0.00  0.95  0.00
  H0024235                1.00   0.05  0.00  0.00  0.00  0.00  0.00  0.95  0.00  0.00
  H0024282                1.00   1.00  0.00  0.00  0.00  0.00  0.00  0.00  0.00  0.00
  H0024308                1.00   0.05  0.00  0.00  0.89  0.06  0.00  0.00  0.02  0.00
  H0024498                1.00   0.05  0.00  0.00  0.00  0.00  0.00  0.95  0.00  0.00
  H0026990                1.00   0.05  0.00  0.00  0.95  0.00  0.00  0.00  0.95  0.00
  H0041650                1.00   0.95  0.01  0.00  0.04  0.00  0.00  0.00  0.94  0.00
  H0041011                1.00   0.05  0.00  0.00  0.95  0.00  0.00  0.00  0.95  0.00
  H0045103                1.00   0.05  0.00  0.00  0.95  0.00  0.00  0.00  0.93  0.00
  H0045104                1.00   0.05  0.00  0.00  0.90  0.05  0.00  0.00  0.06  0.00
  H0045105                1.00   0.05  0.00  0.00  0.95  0.00  0.00  0.00  0.95  0.00
  H0045106                1.00   0.05  0.90  0.00  0.02  0.03  0.00  0.00  0.95  0.00
  H0045107                1.00   0.05  0.00  0.00  0.95  0.00  0.00  0.00  0.95  0.00
  H0045108                1.00   0.05  0.00  0.00  0.95  0.00  0.00  0.00  0.95  0.00
  
  
  *************************
  Conduit Surcharge Summary
  *************************
  
  No conduits were surcharged.
  

  Analysis begun on:  Fri Mar 22 15:55:15 2024
  Analysis ended on:  Fri Mar 22 15:55:26 2024
  Total elapsed time: 00:00:11