
  EPA STORM WATER MANAGEMENT MODEL - VERSION 5.2 (Build 5.2.4)
  PYSWMM TOOLKIT API - VERSION v1.0 (2023-11-27)
  ------------------------------------------------------------

  Gievenbeck_2021-05-15 08 35 00_hN5 87 
  
  ****************
  Analysis Options
  ****************
  Flow Units ............... CMS
  Process Models:
    Rainfall/Runoff ........ YES
    RDII ................... NO
    Snowmelt ............... NO
    Groundwater ............ NO
    Flow Routing ........... YES
    Ponding Allowed ........ NO
    Water Quality .......... NO
  Infiltration Method ...... HORTON
  Flow Routing Method ...... DYNWAVE
  Surcharge Method ......... SLOT
  Starting Date ............ 01/01/2024 00:00:00
  Ending Date .............. 01/04/2024 04:00:00
  Antecedent Dry Days ...... 14.0
  Report Time Step ......... 00:01:00
  Wet Time Step ............ 00:01:00
  Dry Time Step ............ 00:01:00
  Routing Time Step ........ 1.00 sec
  Variable Time Step ....... YES
  Maximum Trials ........... 8
  Number of Threads ........ 1
  Head Tolerance ........... 0.001500 m
  
  
  **************************        Volume         Depth
  Runoff Quantity Continuity     hectare-m            mm
  **************************     ---------       -------
  Total Precipitation ......         0.059         5.870
  Evaporation Loss .........         0.012         1.167
  Infiltration Loss ........         0.032         3.185
  Surface Runoff ...........         0.015         1.521
  Final Storage ............         0.000         0.000
  Continuity Error (%) .....        -0.035
  
  
  **************************        Volume        Volume
  Flow Routing Continuity        hectare-m      10^6 ltr
  **************************     ---------     ---------
  Dry Weather Inflow .......         0.000         0.000
  Wet Weather Inflow .......         0.015         0.154
  Groundwater Inflow .......         0.000         0.000
  RDII Inflow ..............         0.000         0.000
  External Inflow ..........         0.000         0.000
  External Outflow .........         0.015         0.154
  Flooding Loss ............         0.000         0.000
  Evaporation Loss .........         0.000         0.000
  Exfiltration Loss ........         0.000         0.000
  Initial Stored Volume ....         0.000         0.000
  Final Stored Volume ......         0.000         0.000
  Continuity Error (%) .....         0.023
  
  
  ***************************
  Time-Step Critical Elements
  ***************************
  None
  
  
  ********************************
  Highest Flow Instability Indexes
  ********************************
  All links are stable.
  
  
  *********************************
  Most Frequent Nonconverging Nodes
  *********************************
  Convergence obtained at all time steps.
  
  
  *************************
  Routing Time Step Summary
  *************************
  Minimum Time Step           :     0.50 sec
  Average Time Step           :     1.00 sec
  Maximum Time Step           :     1.00 sec
  % of Time in Steady State   :     0.00
  Average Iterations per Step :     2.00
  % of Steps Not Converging   :     0.00
  Time Step Frequencies       :
      1.000 -  0.871 sec      :   100.00 %
      0.871 -  0.758 sec      :     0.00 %
      0.758 -  0.660 sec      :     0.00 %
      0.660 -  0.574 sec      :     0.00 %
      0.574 -  0.500 sec      :     0.00 %
  
  
  ***************************
  Subcatchment Runoff Summary
  ***************************
  
  ------------------------------------------------------------------------------------------------------------------------------
                            Total      Total      Total      Total     Imperv       Perv      Total       Total     Peak  Runoff
                           Precip      Runon       Evap      Infil     Runoff     Runoff     Runoff      Runoff   Runoff   Coeff
  Subcatchment                 mm         mm         mm         mm         mm         mm         mm    10^6 ltr      CMS
  ------------------------------------------------------------------------------------------------------------------------------
  EZG_368                    5.87       0.00       1.16       3.20       1.78       0.00       1.51        0.01     0.00   0.257
  EZG_392                    5.87       0.00       1.16       3.20       1.78       0.00       1.51        0.00     0.00   0.258
  EZG_352                    5.87       0.00       1.16       3.20       1.77       0.00       1.51        0.01     0.00   0.257
  EZG_372                    5.87       0.00       1.15       3.20       1.79       0.00       1.52        0.00     0.00   0.259
  EZG_416                    5.87       0.00       1.15       3.20       1.78       0.00       1.51        0.00     0.00   0.258
  EZG_388                    5.87       0.00       1.16       3.20       1.78       0.00       1.51        0.01     0.00   0.257
  EZG_394                    5.87       0.00       1.15       3.20       1.78       0.00       1.52        0.00     0.00   0.258
  EZG_400                    5.87       0.00       1.15       3.20       1.78       0.00       1.52        0.00     0.00   0.258
  EZG_390                    5.87       0.00       1.16       3.20       1.78       0.00       1.51        0.00     0.00   0.258
  EZG_350                    5.87       0.00       1.16       3.20       1.78       0.00       1.51        0.01     0.00   0.257
  EZG_370                    5.87       0.00       1.16       3.20       1.78       0.00       1.51        0.01     0.00   0.258
  EZG_398                    5.87       0.00       1.14       3.20       1.80       0.00       1.53        0.00     0.00   0.260
  EZG_382                    5.87       0.00       1.14       3.20       1.80       0.00       1.53        0.00     0.00   0.260
  EZG_374                    5.87       0.00       1.40       2.67       2.13       0.00       1.81        0.01     0.00   0.308
  EZG_412                    5.87       0.00       1.14       3.21       1.80       0.00       1.53        0.00     0.00   0.261
  EZG_344                    5.87       0.00       1.15       3.20       1.78       0.00       1.52        0.00     0.00   0.258
  EZG_376                    5.87       0.00       1.15       3.20       1.79       0.00       1.52        0.00     0.00   0.259
  EZG_356                    5.87       0.00       1.17       3.20       1.77       0.00       1.51        0.01     0.00   0.256
  EZG_386                    5.87       0.00       1.17       3.20       1.77       0.00       1.50        0.01     0.00   0.256
  EZG_380                    5.87       0.00       1.16       3.20       1.78       0.00       1.51        0.01     0.00   0.258
  EZG_378                    5.87       0.00       1.16       3.20       1.78       0.00       1.51        0.01     0.00   0.258
  EZG_414                    5.87       0.00       1.14       3.20       1.80       0.00       1.53        0.00     0.00   0.260
  EZG_402                    5.87       0.00       1.16       3.20       1.78       0.00       1.51        0.00     0.00   0.258
  EZG_358                    5.87       0.00       1.17       3.20       1.77       0.00       1.51        0.01     0.00   0.256
  EZG_364                    5.87       0.00       1.17       3.20       1.77       0.00       1.51        0.01     0.00   0.256
  EZG_410                    5.87       0.00       1.15       3.20       1.79       0.00       1.52        0.00     0.00   0.259
  EZG_366                    5.87       0.00       1.15       3.20       1.78       0.00       1.52        0.00     0.00   0.258
  EZG_18259                  5.87       0.00       1.15       3.20       1.78       0.00       1.52        0.00     0.00   0.258
  EZG_18258                  5.87       0.00       1.14       3.20       1.80       0.00       1.53        0.00     0.00   0.261
  EZG_346                    5.87       0.00       1.13       3.26       1.74       0.00       1.48        0.01     0.00   0.253
  EZG_348                    5.87       0.00       1.13       3.26       1.75       0.00       1.49        0.00     0.00   0.253
  
  
  ******************
  Node Depth Summary
  ******************
  
  ---------------------------------------------------------------------------------
                                 Average  Maximum  Maximum  Time of Max    Reported
                                   Depth    Depth      HGL   Occurrence   Max Depth
  Node                 Type       Meters   Meters   Meters  days hr:min      Meters
  ---------------------------------------------------------------------------------
  R0019466             JUNCTION     0.00     0.05    69.50     0  07:31        0.05
  R0019468             JUNCTION     0.00     0.05    69.36     0  07:33        0.05
  R0019831             JUNCTION     0.00     0.03    69.20     0  07:30        0.03
  R0019825             JUNCTION     0.00     0.05    68.89     0  07:31        0.05
  R0019843             JUNCTION     0.00     0.06    67.69     0  11:17        0.06
  R0019368             JUNCTION     0.00     0.09    66.88     0  11:17        0.09
  R0019369             JUNCTION     0.00     0.07    66.66     0  11:18        0.07
  R0019370             JUNCTION     0.00     0.06    65.96     0  11:18        0.06
  R0019345             JUNCTION     0.00     0.05    69.95     0  07:33        0.05
  R0019346             JUNCTION     0.00     0.04    69.84     0  07:33        0.04
  R0043600             JUNCTION     0.00     0.05    69.72     0  07:35        0.05
  R0019203             JUNCTION     0.00     0.06    69.60     0  07:36        0.06
  R0043594             JUNCTION     0.00     0.04    69.77     0  07:31        0.04
  R0021458             JUNCTION     0.00     0.06    69.71     0  07:33        0.06
  R0019202             JUNCTION     0.00     0.05    69.63     0  07:35        0.05
  R0019373             JUNCTION     0.00     0.03    69.70     0  07:31        0.03
  R0019254             JUNCTION     0.00     0.05    70.09     0  07:31        0.05
  R0019716             JUNCTION     0.00     0.06    69.07     0  07:38        0.06
  R0019946             JUNCTION     0.01     0.11    68.73     0  07:39        0.11
  R0013935             JUNCTION     0.00     0.03    68.86     0  07:30        0.03
  R0019939             JUNCTION     0.00     0.04    68.61     0  07:31        0.04
  R0019944             JUNCTION     0.00     0.05    68.33     0  07:40        0.05
  R0043703             JUNCTION     0.00     0.06    68.66     0  07:40        0.06
  R0019945             JUNCTION     0.00     0.07    68.47     0  07:39        0.07
  R0039621             JUNCTION     0.00     0.00    69.57     0  00:00        0.00
  R0019838             JUNCTION     0.00     0.05    69.51     0  07:32        0.05
  R0039606             JUNCTION     0.00     0.05    69.64     0  07:35        0.05
  R0019204             JUNCTION     0.00     0.00    69.91     0  00:00        0.00
  R0019205             JUNCTION     0.00     0.00    69.62     0  00:00        0.00
  R0019849             JUNCTION     0.00     0.05    68.57     0  07:32        0.05
  R0019371             JUNCTION     0.00     0.00    70.41     0  00:00        0.00
  R0019718             JUNCTION     0.00     0.09    69.51     0  07:38        0.09
  R0021442             JUNCTION     0.00     0.06    70.11     0  07:32        0.06
  R0019247             JUNCTION     0.00     0.06    69.94     0  07:33        0.06
  R0019719             JUNCTION     0.00     0.05    69.73     0  07:35        0.05
  R0019767             JUNCTION     0.00     0.06    64.79     0  11:19        0.06
  R0019768             JUNCTION     0.00     0.05    63.82     0  11:19        0.05
  R0021453             JUNCTION     0.00     0.02    69.97     0  07:30        0.02
  R0019839             JUNCTION     0.00     0.04    69.43     0  07:32        0.04
  R0019717             JUNCTION     0.00     0.06    69.40     0  07:37        0.06
  R0019252             JUNCTION     0.00     0.04    70.23     0  07:30        0.04
  R0019721             JUNCTION     0.00     0.04    69.91     0  07:32        0.04
  R0019942             JUNCTION     0.00     0.03    68.68     0  07:32        0.03
  R0019206             JUNCTION     0.00     0.00    69.07     0  00:00        0.00
  R0019840             JUNCTION     0.00     0.04    69.01     0  07:33        0.04
  R0043702             JUNCTION     0.00     0.05    68.75     0  07:33        0.05
  R0019723             JUNCTION     0.00     0.03    70.11     0  07:30        0.03
  R0019724             JUNCTION     0.00     0.02    70.18     0  07:30        0.02
  R0021433             JUNCTION     0.00     0.03    70.42     0  07:30        0.03
  R0021435             JUNCTION     0.00     0.04    70.22     0  07:31        0.04
  R0019769             OUTFALL      0.00     0.05    63.43     0  11:19        0.05
  
  
  *******************
  Node Inflow Summary
  *******************
  
  -------------------------------------------------------------------------------------------------
                                  Maximum  Maximum                  Lateral       Total        Flow
                                  Lateral    Total  Time of Max      Inflow      Inflow     Balance
                                   Inflow   Inflow   Occurrence      Volume      Volume       Error
  Node                 Type           CMS      CMS  days hr:min    10^6 ltr    10^6 ltr     Percent
  -------------------------------------------------------------------------------------------------
  R0019466             JUNCTION     0.002    0.004     0  07:30     0.00624      0.0117      -0.123
  R0019468             JUNCTION     0.001    0.004     0  07:31     0.00363      0.0153       0.144
  R0019831             JUNCTION     0.002    0.002     0  07:30      0.0049      0.0049      -0.334
  R0019825             JUNCTION     0.002    0.003     0  07:30     0.00492     0.00984      -0.002
  R0019843             JUNCTION     0.000    0.024     0  11:16           0       0.154      -0.037
  R0019368             JUNCTION     0.000    0.024     0  11:17           0       0.154       0.003
  R0019369             JUNCTION     0.000    0.024     0  11:17           0       0.154       0.008
  R0019370             JUNCTION     0.000    0.024     0  11:18           0       0.154       0.003
  R0019345             JUNCTION     0.000    0.003     0  07:31           0     0.00964       0.407
  R0019346             JUNCTION     0.000    0.004     0  07:33    0.000612      0.0161       0.123
  R0043600             JUNCTION     0.000    0.005     0  07:34           0      0.0187       0.420
  R0019203             JUNCTION     0.001    0.009     0  07:35     0.00135      0.0416      -0.093
  R0043594             JUNCTION     0.003    0.004     0  07:30      0.0089      0.0127      -0.587
  R0021458             JUNCTION     0.002    0.005     0  07:31     0.00693      0.0197      -0.114
  R0019202             JUNCTION     0.001    0.005     0  07:35     0.00206      0.0217      -0.056
  R0019373             JUNCTION     0.002    0.002     0  07:30     0.00542     0.00542      -0.153
  R0019254             JUNCTION     0.002    0.003     0  07:30     0.00441     0.00962      -0.212
  R0019716             JUNCTION     0.002    0.015     0  07:37     0.00688      0.0857      -0.097
  R0019946             JUNCTION     0.000    0.015     0  07:38           0      0.0857       0.123
  R0013935             JUNCTION     0.002    0.002     0  07:30      0.0042      0.0042      -0.362
  R0019939             JUNCTION     0.001    0.002     0  07:30     0.00151     0.00573      -0.058
  R0019944             JUNCTION     0.002    0.017     0  07:39     0.00391        0.11       0.006
  R0043703             JUNCTION     0.002    0.015     0  07:39     0.00479      0.0904      -0.015
  R0019945             JUNCTION     0.000    0.017     0  07:39           0       0.106       0.014
  R0039621             JUNCTION     0.000    0.000     0  00:00           0           0       0.000 ltr
  R0019838             JUNCTION     0.003    0.003     0  07:30     0.00964     0.00964      -0.006
  R0039606             JUNCTION     0.000    0.005     0  07:34           0      0.0197       0.483
  R0019204             JUNCTION     0.000    0.000     0  00:00           0           0       0.000 ltr
  R0019205             JUNCTION     0.000    0.000     0  00:00           0           0       0.000 ltr
  R0019849             JUNCTION     0.000    0.005     0  07:32           0      0.0156       0.044
  R0019371             JUNCTION     0.000    0.000     0  00:00           0           0       0.000 ltr
  R0019718             JUNCTION     0.002    0.010     0  07:36     0.00588      0.0476       0.102
  R0021442             JUNCTION     0.002    0.004     0  07:31     0.00686      0.0156      -0.120
  R0019247             JUNCTION     0.001    0.005     0  07:32     0.00303      0.0186      -0.294
  R0019719             JUNCTION     0.001    0.005     0  07:33     0.00319      0.0193      -0.001
  R0019767             JUNCTION     0.000    0.024     0  11:18           0       0.154       0.005
  R0019768             JUNCTION     0.000    0.024     0  11:19           0       0.154       0.014
  R0021453             JUNCTION     0.002    0.002     0  07:30     0.00384     0.00384       1.132
  R0019839             JUNCTION     0.003    0.005     0  07:30     0.00953      0.0192      -0.103
  R0019717             JUNCTION     0.003    0.014     0  07:37       0.012      0.0788      -0.005
  R0019252             JUNCTION     0.002    0.002     0  07:30     0.00519     0.00519      -0.353
  R0019721             JUNCTION     0.001    0.002     0  07:30     0.00133     0.00589       0.101
  R0019942             JUNCTION     0.000    0.003     0  07:31           0     0.00984       0.148
  R0019206             JUNCTION     0.000    0.000     0  00:00           0           0       0.000 ltr
  R0019840             JUNCTION     0.000    0.008     0  07:32           0      0.0345       0.058
  R0043702             JUNCTION     0.003    0.010     0  07:32     0.00954       0.044      -0.004
  R0019723             JUNCTION     0.001    0.002     0  07:30      0.0036     0.00454      -0.499
  R0019724             JUNCTION     0.001    0.001     0  07:30    0.000937    0.000937      -0.192
  R0021433             JUNCTION     0.002    0.002     0  07:30     0.00539     0.00539      -0.358
  R0021435             JUNCTION     0.001    0.003     0  07:30     0.00331     0.00872       0.176
  R0019769             OUTFALL      0.000    0.024     0  11:19           0       0.154       0.000
  
  
  **********************
  Node Surcharge Summary
  **********************
  
  No nodes were surcharged.
  
  
  *********************
  Node Flooding Summary
  *********************
  
  No nodes were flooded.
  
  
  ***********************
  Outfall Loading Summary
  ***********************
  
  -----------------------------------------------------------
                         Flow       Avg       Max       Total
                         Freq      Flow      Flow      Volume
  Outfall Node           Pcnt       CMS       CMS    10^6 ltr
  -----------------------------------------------------------
  R0019769              13.02     0.004     0.024       0.154
  -----------------------------------------------------------
  System                13.02     0.004     0.024       0.154
  
  
  ********************
  Link Flow Summary
  ********************
  
  -----------------------------------------------------------------------------
                                 Maximum  Time of Max   Maximum    Max/    Max/
                                  |Flow|   Occurrence   |Veloc|    Full    Full
  Link                 Type          CMS  days hr:min     m/sec    Flow   Depth
  -----------------------------------------------------------------------------
  H0014431             CONDUIT     0.003     0  07:32      0.43    0.06    0.17
  H0014433             CONDUIT     0.002     0  07:30      0.33    0.02    0.13
  H0014352             CONDUIT     0.024     0  11:17      0.91    0.01    0.08
  H0014373             CONDUIT     0.024     0  11:18      1.20    0.01    0.07
  H0017981             CONDUIT     0.002     0  07:33      0.36    0.07    0.15
  H0017755             CONDUIT     0.004     0  07:35      0.50    0.03    0.12
  H0017791             CONDUIT     0.003     0  07:31      0.26    0.00    0.06
  H0017357             CONDUIT     0.000     0  00:00      0.00    0.00    0.05
  H0018216             CONDUIT     0.003     0  07:31      0.40    0.05    0.16
  H0016792             CONDUIT     0.015     0  07:38      0.48    0.01    0.10
  H0019507             CONDUIT     0.001     0  07:30      0.31    0.02    0.12
  H0019998             CONDUIT     0.017     0  07:40      1.00    0.01    0.06
  H0019576             CONDUIT     0.015     0  07:40      0.73    0.01    0.07
  H0020087             CONDUIT     0.000     0  00:00      0.00    0.00    0.05
  H0020211             CONDUIT     0.014     0  07:39      0.45    0.04    0.10
  H0018982             CONDUIT     0.005     0  07:34      0.30    0.01    0.06
  H0018753             CONDUIT     0.002     0  07:31      0.28    0.02    0.14
  H0018845             CONDUIT     0.000     0  00:00      0.00    0.00    0.00
  H0018863             CONDUIT     0.002     0  07:31      0.30    0.05    0.15
  H0019156             CONDUIT     0.000     0  00:00      0.00    0.00    0.00
  H0018929             CONDUIT     0.009     0  07:36      0.40    0.01    0.08
  H0018440             CONDUIT     0.004     0  07:32      0.46    0.07    0.18
  H0018456             CONDUIT     0.004     0  07:33      0.55    0.03    0.11
  H0018968             CONDUIT     0.024     0  11:19      1.37    0.01    0.06
  H0022036             CONDUIT     0.001     0  07:30      0.44    0.00    0.02
  H0021806             CONDUIT     0.005     0  07:34      0.47    0.04    0.13
  H0022111             CONDUIT     0.002     0  07:32      0.27    0.02    0.09
  H0021440             CONDUIT     0.014     0  07:37      0.77    0.01    0.07
  H0021704             CONDUIT     0.009     0  07:38      0.39    0.02    0.08
  H0020521             CONDUIT     0.002     0  07:30      0.28    0.03    0.14
  H0020755             CONDUIT     0.002     0  07:32      0.28    0.02    0.10
  H0020530             CONDUIT     0.024     0  11:17      0.86    0.02    0.09
  H0020618             CONDUIT     0.017     0  07:39      0.94    0.01    0.07
  H0021163             CONDUIT     0.003     0  07:31      0.52    0.05    0.13
  H0020497             CONDUIT     0.000     0  00:00      0.00    0.00    0.10
  H0024325             CONDUIT     0.004     0  07:32      0.64    0.01    0.08
  H0023585             CONDUIT     0.010     0  07:33      0.91    0.02    0.10
  H0024098             CONDUIT     0.005     0  07:32      0.62    0.05    0.17
  H0024235             CONDUIT     0.004     0  07:35      0.50    0.02    0.09
  H0024282             CONDUIT     0.000     0  00:00      0.00    0.00    0.00
  H0024308             CONDUIT     0.024     0  11:19      1.54    0.01    0.06
  H0024498             CONDUIT     0.004     0  07:33      0.52    0.06    0.16
  H0026990             CONDUIT     0.002     0  07:30      0.34    0.01    0.09
  H0041650             CONDUIT     0.005     0  07:35      0.32    0.01    0.06
  H0041011             CONDUIT     0.003     0  07:32      0.48    0.03    0.13
  H0045103             CONDUIT     0.004     0  07:35      0.34    0.01    0.05
  H0045104             CONDUIT     0.024     0  11:18      1.29    0.01    0.07
  H0045105             CONDUIT     0.000     0  07:30      0.17    0.01    0.08
  H0045106             CONDUIT     0.008     0  07:33      0.95    0.01    0.09
  H0045107             CONDUIT     0.002     0  07:30      0.34    0.03    0.13
  H0045108             CONDUIT     0.002     0  07:31      0.33    0.04    0.16
  
  
  ***************************
  Flow Classification Summary
  ***************************
  
  -------------------------------------------------------------------------------------
                      Adjusted    ---------- Fraction of Time in Flow Class ---------- 
                       /Actual         Up    Down  Sub   Sup   Up    Down  Norm  Inlet 
  Conduit               Length    Dry  Dry   Dry   Crit  Crit  Crit  Crit  Ltd   Ctrl  
  -------------------------------------------------------------------------------------
  H0014431                1.00   0.04  0.00  0.00  0.95  0.00  0.00  0.00  0.94  0.00
  H0014433                1.00   0.04  0.00  0.00  0.96  0.00  0.00  0.00  0.96  0.00
  H0014352                1.00   0.04  0.00  0.00  0.89  0.07  0.00  0.00  0.95  0.00
  H0014373                1.00   0.04  0.00  0.00  0.84  0.12  0.00  0.00  0.81  0.00
  H0017981                1.00   0.04  0.00  0.00  0.00  0.00  0.00  0.96  0.00  0.00
  H0017755                1.00   0.04  0.00  0.00  0.00  0.00  0.00  0.96  0.00  0.00
  H0017791                1.00   0.04  0.00  0.00  0.96  0.00  0.00  0.00  0.95  0.00
  H0017357                1.00   0.04  0.96  0.00  0.00  0.00  0.00  0.00  0.00  0.00
  H0018216                1.00   0.04  0.82  0.00  0.13  0.00  0.00  0.00  0.95  0.00
  H0016792                1.00   0.04  0.81  0.00  0.14  0.00  0.00  0.00  0.95  0.00
  H0019507                1.00   0.04  0.00  0.00  0.96  0.00  0.00  0.00  0.95  0.00
  H0019998                1.00   0.04  0.00  0.00  0.84  0.12  0.00  0.00  0.14  0.00
  H0019576                1.00   0.04  0.00  0.00  0.93  0.03  0.00  0.00  0.14  0.00
  H0020087                1.00   0.04  0.96  0.00  0.00  0.00  0.00  0.00  0.00  0.00
  H0020211                1.00   0.04  0.00  0.00  0.96  0.00  0.00  0.00  0.81  0.00
  H0018982                1.00   0.04  0.00  0.00  0.96  0.00  0.00  0.00  0.85  0.00
  H0018753                1.00   0.04  0.00  0.00  0.96  0.00  0.00  0.00  0.96  0.00
  H0018845                1.00   1.00  0.00  0.00  0.00  0.00  0.00  0.00  0.00  0.00
  H0018863                1.00   0.04  0.00  0.00  0.96  0.00  0.00  0.00  0.95  0.00
  H0019156                1.00   1.00  0.00  0.00  0.00  0.00  0.00  0.00  0.00  0.00
  H0018929                1.00   0.04  0.82  0.00  0.14  0.00  0.00  0.00  0.96  0.00
  H0018440                1.00   0.04  0.00  0.00  0.96  0.00  0.00  0.00  0.94  0.00
  H0018456                1.00   0.04  0.00  0.00  0.96  0.00  0.00  0.00  0.95  0.00
  H0018968                1.00   0.04  0.81  0.00  0.02  0.13  0.00  0.00  0.84  0.00
  H0022036                1.00   0.04  0.00  0.00  0.00  0.01  0.00  0.95  0.00  0.00
  H0021806                1.00   0.04  0.82  0.00  0.13  0.00  0.00  0.00  0.93  0.00
  H0022111                1.00   0.04  0.00  0.00  0.96  0.00  0.00  0.00  0.01  0.00
  H0021440                1.00   0.04  0.00  0.00  0.90  0.06  0.00  0.00  0.03  0.00
  H0021704                1.00   0.04  0.00  0.00  0.00  0.00  0.00  0.96  0.00  0.00
  H0020521                1.00   0.04  0.00  0.00  0.96  0.00  0.00  0.00  0.95  0.00
  H0020755                1.00   0.04  0.83  0.00  0.12  0.00  0.00  0.00  0.95  0.00
  H0020530                1.00   0.04  0.00  0.00  0.90  0.05  0.00  0.00  0.00  0.00
  H0020618                1.00   0.04  0.00  0.00  0.86  0.10  0.00  0.00  0.81  0.00
  H0021163                1.00   0.04  0.00  0.00  0.95  0.00  0.00  0.00  0.85  0.00
  H0020497                1.20   0.04  0.96  0.00  0.00  0.00  0.00  0.00  0.00  0.00
  H0024325                1.00   0.04  0.00  0.00  0.89  0.06  0.00  0.00  0.85  0.00
  H0023585                1.00   0.04  0.00  0.00  0.00  0.00  0.00  0.96  0.00  0.00
  H0024098                1.00   0.04  0.83  0.00  0.13  0.00  0.00  0.00  0.95  0.00
  H0024235                1.00   0.04  0.00  0.00  0.00  0.00  0.00  0.96  0.00  0.00
  H0024282                1.00   1.00  0.00  0.00  0.00  0.00  0.00  0.00  0.00  0.00
  H0024308                1.00   0.05  0.00  0.00  0.81  0.15  0.00  0.00  0.03  0.00
  H0024498                1.00   0.04  0.00  0.00  0.00  0.00  0.00  0.96  0.00  0.00
  H0026990                1.00   0.04  0.00  0.00  0.96  0.00  0.00  0.00  0.95  0.00
  H0041650                1.00   0.86  0.02  0.00  0.12  0.00  0.00  0.00  0.95  0.00
  H0041011                1.00   0.04  0.00  0.00  0.95  0.00  0.00  0.00  0.95  0.00
  H0045103                1.00   0.04  0.00  0.00  0.96  0.00  0.00  0.00  0.90  0.00
  H0045104                1.00   0.04  0.00  0.00  0.83  0.13  0.00  0.00  0.14  0.00
  H0045105                1.00   0.04  0.00  0.00  0.96  0.00  0.00  0.00  0.96  0.00
  H0045106                1.00   0.04  0.82  0.00  0.04  0.09  0.00  0.00  0.96  0.00
  H0045107                1.00   0.04  0.00  0.00  0.96  0.00  0.00  0.00  0.95  0.00
  H0045108                1.00   0.04  0.00  0.00  0.96  0.00  0.00  0.00  0.96  0.00
  
  
  *************************
  Conduit Surcharge Summary
  *************************
  
  No conduits were surcharged.
  

  Analysis begun on:  Fri Mar 22 15:55:03 2024
  Analysis ended on:  Fri Mar 22 15:55:14 2024
  Total elapsed time: 00:00:11