
  EPA STORM WATER MANAGEMENT MODEL - VERSION 5.2 (Build 5.2.4)
  PYSWMM TOOLKIT API - VERSION v1.0 (2023-11-27)
  ------------------------------------------------------------

  Gievenbeck_e2_T3D30 
  
  ****************
  Analysis Options
  ****************
  Flow Units ............... CMS
  Process Models:
    Rainfall/Runoff ........ YES
    RDII ................... NO
    Snowmelt ............... NO
    Groundwater ............ NO
    Flow Routing ........... YES
    Ponding Allowed ........ NO
    Water Quality .......... NO
  Infiltration Method ...... HORTON
  Flow Routing Method ...... DYNWAVE
  Surcharge Method ......... SLOT
  Starting Date ............ 01/01/2024 00:00:00
  Ending Date .............. 01/04/2024 04:00:00
  Antecedent Dry Days ...... 14.0
  Report Time Step ......... 00:01:00
  Wet Time Step ............ 00:01:00
  Dry Time Step ............ 00:01:00
  Routing Time Step ........ 1.00 sec
  Variable Time Step ....... YES
  Maximum Trials ........... 8
  Number of Threads ........ 1
  Head Tolerance ........... 0.001500 m
  
  
  **************************        Volume         Depth
  Runoff Quantity Continuity     hectare-m            mm
  **************************     ---------       -------
  Total Precipitation ......         0.174        17.200
  Evaporation Loss .........         0.010         0.957
  Infiltration Loss ........         0.097         9.547
  Surface Runoff ...........         0.068         6.734
  Final Storage ............         0.000         0.000
  Continuity Error (%) .....        -0.219
  
  
  **************************        Volume        Volume
  Flow Routing Continuity        hectare-m      10^6 ltr
  **************************     ---------     ---------
  Dry Weather Inflow .......         0.000         0.000
  Wet Weather Inflow .......         0.068         0.682
  Groundwater Inflow .......         0.000         0.000
  RDII Inflow ..............         0.000         0.000
  External Inflow ..........         0.000         0.000
  External Outflow .........         0.068         0.684
  Flooding Loss ............         0.000         0.000
  Evaporation Loss .........         0.000         0.000
  Exfiltration Loss ........         0.000         0.000
  Initial Stored Volume ....         0.000         0.000
  Final Stored Volume ......         0.000         0.000
  Continuity Error (%) .....        -0.389
  
  
  *************************
  Highest Continuity Errors
  *************************
  Node R0019718 (-3.25%)
  Node R0019717 (1.22%)
  
  
  ***************************
  Time-Step Critical Elements
  ***************************
  None
  
  
  ********************************
  Highest Flow Instability Indexes
  ********************************
  All links are stable.
  
  
  *********************************
  Most Frequent Nonconverging Nodes
  *********************************
  Convergence obtained at all time steps.
  
  
  *************************
  Routing Time Step Summary
  *************************
  Minimum Time Step           :     0.69 sec
  Average Time Step           :     1.00 sec
  Maximum Time Step           :     1.00 sec
  % of Time in Steady State   :     0.00
  Average Iterations per Step :     2.00
  % of Steps Not Converging   :     0.00
  Time Step Frequencies       :
      1.000 -  0.871 sec      :   100.00 %
      0.871 -  0.758 sec      :     0.00 %
      0.758 -  0.660 sec      :     0.00 %
      0.660 -  0.574 sec      :     0.00 %
      0.574 -  0.500 sec      :     0.00 %
  
  
  ***************************
  Subcatchment Runoff Summary
  ***************************
  
  ------------------------------------------------------------------------------------------------------------------------------
                            Total      Total      Total      Total     Imperv       Perv      Total       Total     Peak  Runoff
                           Precip      Runon       Evap      Infil     Runoff     Runoff     Runoff      Runoff   Runoff   Coeff
  Subcatchment                 mm         mm         mm         mm         mm         mm         mm    10^6 ltr      CMS
  ------------------------------------------------------------------------------------------------------------------------------
  EZG_368                   17.20       0.00       0.95       9.61       7.68       0.15       6.68        0.03     0.05   0.388
  EZG_392                   17.20       0.00       0.95       9.59       7.69       0.17       6.71        0.02     0.04   0.390
  EZG_352                   17.20       0.00       0.96       9.63       7.67       0.12       6.64        0.04     0.07   0.386
  EZG_372                   17.20       0.00       0.94       9.50       7.71       0.27       6.82        0.01     0.02   0.396
  EZG_416                   17.20       0.00       0.95       9.58       7.69       0.18       6.72        0.02     0.04   0.391
  EZG_388                   17.20       0.00       0.95       9.61       7.68       0.14       6.67        0.03     0.06   0.388
  EZG_394                   17.20       0.00       0.95       9.57       7.69       0.19       6.72        0.02     0.04   0.391
  EZG_400                   17.20       0.00       0.94       9.57       7.69       0.19       6.73        0.02     0.04   0.391
  EZG_390                   17.20       0.00       0.95       9.58       7.69       0.17       6.71        0.02     0.04   0.390
  EZG_350                   17.20       0.00       0.95       9.61       7.68       0.14       6.67        0.03     0.06   0.388
  EZG_370                   17.20       0.00       0.95       9.59       7.69       0.16       6.69        0.02     0.05   0.389
  EZG_398                   17.20       0.00       0.93       9.46       7.71       0.31       6.86        0.01     0.01   0.399
  EZG_382                   17.20       0.00       0.93       9.44       7.72       0.32       6.88        0.01     0.01   0.400
  EZG_374                   17.20       0.00       1.15       8.04       9.21       0.22       8.05        0.03     0.06   0.468
  EZG_412                   17.20       0.00       0.93       9.33       7.73       0.44       7.01        0.00     0.01   0.408
  EZG_344                   17.20       0.00       0.94       9.56       7.69       0.20       6.73        0.02     0.04   0.392
  EZG_376                   17.20       0.00       0.94       9.54       7.70       0.22       6.76        0.01     0.03   0.393
  EZG_356                   17.20       0.00       0.96       9.64       7.67       0.12       6.64        0.04     0.08   0.386
  EZG_386                   17.20       0.00       0.96       9.65       7.67       0.10       6.62        0.05     0.10   0.385
  EZG_380                   17.20       0.00       0.95       9.60       7.68       0.15       6.69        0.03     0.05   0.389
  EZG_378                   17.20       0.00       0.95       9.59       7.69       0.17       6.70        0.02     0.05   0.389
  EZG_414                   17.20       0.00       0.93       9.44       7.72       0.33       6.88        0.01     0.01   0.400
  EZG_402                   17.20       0.00       0.95       9.59       7.69       0.17       6.71        0.02     0.04   0.390
  EZG_358                   17.20       0.00       0.96       9.64       7.67       0.12       6.64        0.04     0.08   0.386
  EZG_364                   17.20       0.00       0.96       9.64       7.67       0.12       6.64        0.04     0.08   0.386
  EZG_410                   17.20       0.00       0.94       9.54       7.70       0.21       6.76        0.01     0.03   0.393
  EZG_366                   17.20       0.00       0.94       9.56       7.69       0.20       6.74        0.02     0.03   0.392
  EZG_18259                 17.20       0.00       0.94       9.56       7.69       0.20       6.74        0.02     0.03   0.392
  EZG_18258                 17.20       0.00       0.93       9.39       7.72       0.38       6.94        0.00     0.01   0.403
  EZG_346                   17.20       0.00       0.93       9.75       7.53       0.16       6.56        0.02     0.05   0.381
  EZG_348                   17.20       0.00       0.92       9.71       7.54       0.20       6.61        0.01     0.03   0.385
  
  
  ******************
  Node Depth Summary
  ******************
  
  ---------------------------------------------------------------------------------
                                 Average  Maximum  Maximum  Time of Max    Reported
                                   Depth    Depth      HGL   Occurrence   Max Depth
  Node                 Type       Meters   Meters   Meters  days hr:min      Meters
  ---------------------------------------------------------------------------------
  R0019466             JUNCTION     0.00     0.55    70.00     0  02:15        0.54
  R0019468             JUNCTION     0.00     0.49    69.80     0  02:15        0.48
  R0019831             JUNCTION     0.00     0.17    69.34     0  02:15        0.16
  R0019825             JUNCTION     0.00     0.49    69.33     0  02:15        0.41
  R0019843             JUNCTION     0.00     0.41    68.04     0  02:16        0.40
  R0019368             JUNCTION     0.00     0.62    67.41     0  02:16        0.61
  R0019369             JUNCTION     0.00     0.44    67.03     0  02:17        0.43
  R0019370             JUNCTION     0.00     0.37    66.27     0  02:16        0.37
  R0019345             JUNCTION     0.00     0.32    70.22     0  02:15        0.29
  R0019346             JUNCTION     0.00     0.27    70.07     0  02:15        0.27
  R0043600             JUNCTION     0.00     0.31    69.98     0  02:15        0.31
  R0019203             JUNCTION     0.00     0.36    69.90     0  02:16        0.36
  R0043594             JUNCTION     0.00     0.25    69.98     0  02:15        0.24
  R0021458             JUNCTION     0.00     0.29    69.94     0  02:15        0.29
  R0019202             JUNCTION     0.00     0.33    69.91     0  02:16        0.33
  R0019373             JUNCTION     0.00     0.35    70.02     0  02:15        0.32
  R0019254             JUNCTION     0.00     0.45    70.49     0  02:15        0.38
  R0019716             JUNCTION     0.00     0.39    69.40     0  02:16        0.38
  R0019946             JUNCTION     0.00     0.54    69.16     0  02:16        0.54
  R0013935             JUNCTION     0.00     0.19    69.02     0  02:15        0.19
  R0019939             JUNCTION     0.00     0.43    69.00     0  02:15        0.42
  R0019944             JUNCTION     0.00     0.34    68.62     0  02:16        0.34
  R0043703             JUNCTION     0.00     0.42    69.02     0  02:16        0.41
  R0019945             JUNCTION     0.00     0.42    68.82     0  02:16        0.42
  R0039621             JUNCTION     0.00     0.15    69.72     0  02:15        0.14
  R0019838             JUNCTION     0.00     0.25    69.71     0  02:15        0.25
  R0039606             JUNCTION     0.00     0.32    69.91     0  02:16        0.32
  R0019204             JUNCTION     0.00     0.00    69.91     0  00:00        0.00
  R0019205             JUNCTION     0.00     0.00    69.62     0  00:00        0.00
  R0019849             JUNCTION     0.00     0.45    68.97     0  02:15        0.44
  R0019371             JUNCTION     0.00     0.00    70.41     0  00:00        0.00
  R0019718             JUNCTION     0.00     0.44    69.86     0  02:16        0.44
  R0021442             JUNCTION     0.00     1.00    71.05     0  02:15        0.94
  R0019247             JUNCTION     0.00     0.42    70.30     0  02:15        0.40
  R0019719             JUNCTION     0.00     0.28    69.96     0  02:15        0.28
  R0019767             JUNCTION     0.00     0.40    65.13     0  02:16        0.40
  R0019768             JUNCTION     0.00     0.34    64.11     0  02:16        0.34
  R0021453             JUNCTION     0.00     0.10    70.05     0  02:15        0.10
  R0019839             JUNCTION     0.00     0.23    69.62     0  02:15        0.23
  R0019717             JUNCTION     0.00     0.38    69.72     0  02:16        0.38
  R0019252             JUNCTION     0.00     0.42    70.61     0  02:15        0.35
  R0019721             JUNCTION     0.00     0.23    70.10     0  02:15        0.23
  R0019942             JUNCTION     0.00     0.39    69.04     0  02:15        0.37
  R0019206             JUNCTION     0.00     0.00    69.07     0  00:00        0.00
  R0019840             JUNCTION     0.00     0.21    69.18     0  02:15        0.20
  R0043702             JUNCTION     0.00     0.31    69.01     0  02:15        0.31
  R0019723             JUNCTION     0.00     0.15    70.23     0  02:15        0.15
  R0019724             JUNCTION     0.00     0.08    70.24     0  02:15        0.08
  R0021433             JUNCTION     0.00     0.95    71.34     0  02:15        0.88
  R0021435             JUNCTION     0.00     1.07    71.25     0  02:15        0.99
  R0019769             OUTFALL      0.00     0.34    63.72     0  02:17        0.34
  
  
  *******************
  Node Inflow Summary
  *******************
  
  -------------------------------------------------------------------------------------------------
                                  Maximum  Maximum                  Lateral       Total        Flow
                                  Lateral    Total  Time of Max      Inflow      Inflow     Balance
                                   Inflow   Inflow   Occurrence      Volume      Volume       Error
  Node                 Type           CMS      CMS  days hr:min    10^6 ltr    10^6 ltr     Percent
  -------------------------------------------------------------------------------------------------
  R0019466             JUNCTION     0.055    0.083     0  02:13      0.0276      0.0487       0.246
  R0019468             JUNCTION     0.034    0.101     0  02:13      0.0161      0.0647      -0.077
  R0019831             JUNCTION     0.044    0.044     0  02:15      0.0217      0.0217       0.050
  R0019825             JUNCTION     0.044    0.087     0  02:15      0.0218      0.0435       0.496
  R0019843             JUNCTION     0.000    1.022     0  02:16           0       0.684      -0.025
  R0019368             JUNCTION     0.000    1.023     0  02:16           0       0.684       0.007
  R0019369             JUNCTION     0.000    1.063     0  02:17           0       0.684      -0.011
  R0019370             JUNCTION     0.000    1.019     0  02:17           0       0.685       0.007
  R0019345             JUNCTION     0.000    0.079     0  02:15           0      0.0426       0.042
  R0019346             JUNCTION     0.006    0.131     0  02:15      0.0028      0.0716       0.061
  R0043600             JUNCTION     0.000    0.142     0  02:15           0      0.0827       0.074
  R0019203             JUNCTION     0.013    0.317     0  02:15     0.00608       0.188       0.009
  R0043594             JUNCTION     0.075    0.109     0  02:15      0.0392      0.0563      -0.372
  R0021458             JUNCTION     0.060    0.155     0  02:15      0.0306      0.0871      -0.025
  R0019202             JUNCTION     0.020    0.171     0  02:15     0.00922      0.0991      -0.210
  R0019373             JUNCTION     0.048    0.048     0  02:15       0.024       0.024       0.617
  R0019254             JUNCTION     0.040    0.080     0  02:15      0.0196      0.0426       0.069
  R0019716             JUNCTION     0.060    0.609     0  02:16      0.0304       0.385      -0.060
  R0019946             JUNCTION     0.000    0.606     0  02:16           0       0.386       0.053
  R0013935             JUNCTION     0.038    0.038     0  02:15      0.0187      0.0187       0.034
  R0019939             JUNCTION     0.015    0.052     0  02:14     0.00679      0.0254      -0.086
  R0019944             JUNCTION     0.036    0.748     0  02:16      0.0173       0.493       0.013
  R0043703             JUNCTION     0.043    0.636     0  02:16      0.0212       0.407       0.009
  R0019945             JUNCTION     0.000    0.731     0  02:16           0       0.476      -0.012
  R0039621             JUNCTION     0.000    0.007     0  02:12           0    0.000857       1.429
  R0019838             JUNCTION     0.080    0.080     0  02:15      0.0425      0.0434      -0.034
  R0039606             JUNCTION     0.000    0.142     0  02:15           0      0.0873       0.213
  R0019204             JUNCTION     0.000    0.000     0  00:00           0           0       0.000 ltr
  R0019205             JUNCTION     0.000    0.000     0  00:00           0           0       0.000 ltr
  R0019849             JUNCTION     0.000    0.114     0  02:15           0       0.069       0.084
  R0019371             JUNCTION     0.000    0.000     0  00:00           0           0       0.000 ltr
  R0019718             JUNCTION     0.052    0.351     0  02:16       0.026       0.214      -3.148
  R0021442             JUNCTION     0.059    0.122     0  02:15      0.0305      0.0692       0.122
  R0019247             JUNCTION     0.028    0.145     0  02:15      0.0135      0.0826      -0.149
  R0019719             JUNCTION     0.030    0.151     0  02:15      0.0142      0.0858      -0.042
  R0019767             JUNCTION     0.000    1.014     0  02:17           0       0.684      -0.011
  R0019768             JUNCTION     0.000    1.021     0  02:17           0       0.685       0.032
  R0021453             JUNCTION     0.035    0.035     0  02:15       0.017       0.017       0.130
  R0019839             JUNCTION     0.079    0.149     0  02:15       0.042      0.0845      -0.053
  R0019717             JUNCTION     0.097    0.569     0  02:16      0.0528       0.359       1.231
  R0019252             JUNCTION     0.046    0.046     0  02:15       0.023       0.023      -0.230
  R0019721             JUNCTION     0.013    0.054     0  02:15     0.00599      0.0263       0.072
  R0019942             JUNCTION     0.000    0.078     0  02:14           0      0.0433      -0.497
  R0019206             JUNCTION     0.000    0.000     0  00:00           0           0       0.000 ltr
  R0019840             JUNCTION     0.000    0.243     0  02:15           0       0.149       0.042
  R0043702             JUNCTION     0.080    0.313     0  02:15      0.0421       0.191      -0.021
  R0019723             JUNCTION     0.033    0.043     0  02:15       0.016      0.0203      -0.247
  R0019724             JUNCTION     0.010    0.010     0  02:15     0.00425     0.00425      -0.226
  R0021433             JUNCTION     0.048    0.048     0  02:15      0.0239      0.0239      -0.451
  R0021435             JUNCTION     0.031    0.071     0  02:15      0.0147      0.0387       0.052
  R0019769             OUTFALL      0.000    1.026     0  02:17           0       0.684       0.000
  
  
  **********************
  Node Surcharge Summary
  **********************
  
  Surcharging occurs when water rises above the top of the highest conduit.
  ---------------------------------------------------------------------
                                               Max. Height   Min. Depth
                                   Hours       Above Crown    Below Rim
  Node                 Type      Surcharged         Meters       Meters
  ---------------------------------------------------------------------
  R0019466             JUNCTION        0.08          0.254        2.256
  R0019468             JUNCTION        0.07          0.194        2.236
  R0019825             JUNCTION        0.04          0.187        1.013
  R0019345             JUNCTION        0.01          0.016        1.734
  R0019373             JUNCTION        0.02          0.051        2.449
  R0019254             JUNCTION        0.04          0.148        1.682
  R0019939             JUNCTION        0.07          0.128        1.492
  R0019849             JUNCTION        0.08          0.149        1.781
  R0021442             JUNCTION        0.10          0.704        1.046
  R0019247             JUNCTION        0.01          0.017        1.843
  R0019252             JUNCTION        0.01          0.116        1.524
  R0019942             JUNCTION        0.04          0.086        1.564
  R0021433             JUNCTION        0.05          0.654        1.196
  R0021435             JUNCTION        0.08          0.769        1.041
  
  
  *********************
  Node Flooding Summary
  *********************
  
  No nodes were flooded.
  
  
  ***********************
  Outfall Loading Summary
  ***********************
  
  -----------------------------------------------------------
                         Flow       Avg       Max       Total
                         Freq      Flow      Flow      Volume
  Outfall Node           Pcnt       CMS       CMS    10^6 ltr
  -----------------------------------------------------------
  R0019769               4.05     0.062     1.026       0.684
  -----------------------------------------------------------
  System                 4.05     0.062     1.026       0.684
  
  
  ********************
  Link Flow Summary
  ********************
  
  -----------------------------------------------------------------------------
                                 Maximum  Time of Max   Maximum    Max/    Max/
                                  |Flow|   Occurrence   |Veloc|    Full    Full
  Link                 Type          CMS  days hr:min     m/sec    Flow   Depth
  -----------------------------------------------------------------------------
  H0014431             CONDUIT     0.071     0  02:13      1.00    1.31    1.00
  H0014433             CONDUIT     0.043     0  02:15      0.72    0.55    1.00
  H0014352             CONDUIT     1.023     0  02:16      2.79    0.42    0.57
  H0014373             CONDUIT     1.019     0  02:17      3.68    0.47    0.45
  H0017981             CONDUIT     0.078     0  02:15      1.18    2.21    0.89
  H0017755             CONDUIT     0.140     0  02:16      1.42    1.13    0.74
  H0017791             CONDUIT     0.099     0  02:15      0.62    0.14    0.30
  H0017357             CONDUIT     0.029     0  02:15      0.48    0.47    0.80
  H0018216             CONDUIT     0.079     0  02:15      1.12    1.44    1.00
  H0016792             CONDUIT     0.606     0  02:16      1.85    0.35    0.51
  H0019507             CONDUIT     0.037     0  02:14      0.72    0.51    1.00
  H0019998             CONDUIT     0.748     0  02:16      3.03    0.30    0.41
  H0019576             CONDUIT     0.638     0  02:16      2.20    0.43    0.47
  H0020087             CONDUIT     0.007     0  02:12      0.21    0.03    0.40
  H0020211             CONDUIT     0.614     0  02:16      1.81    1.53    0.53
  H0018982             CONDUIT     0.142     0  02:15      0.83    0.23    0.34
  H0018753             CONDUIT     0.037     0  02:13      0.62    0.52    1.00
  H0018845             CONDUIT     0.000     0  00:00      0.00    0.00    0.00
  H0018863             CONDUIT     0.047     0  02:15      0.66    1.10    1.00
  H0019156             CONDUIT     0.000     0  00:00      0.00    0.00    0.00
  H0018929             CONDUIT     0.319     0  02:16      1.19    0.28    0.44
  H0018440             CONDUIT     0.120     0  02:15      1.70    2.15    1.00
  H0018456             CONDUIT     0.131     0  02:15      1.41    0.79    0.69
  H0018968             CONDUIT     1.021     0  02:17      4.19    0.39    0.41
  H0022036             CONDUIT     0.035     0  02:15      0.58    0.03    0.17
  H0021806             CONDUIT     0.142     0  02:15      1.19    1.26    0.91
  H0022111             CONDUIT     0.072     0  02:15      0.78    0.52    0.49
  H0021440             CONDUIT     0.573     0  02:16      2.22    0.37    0.43
  H0021704             CONDUIT     0.358     0  02:16      1.36    0.68    0.43
  H0020521             CONDUIT     0.044     0  02:15      0.63    0.89    1.00
  H0020755             CONDUIT     0.049     0  02:15      0.62    0.54    0.63
  H0020530             CONDUIT     1.063     0  02:17      2.77    0.91    0.58
  H0020618             CONDUIT     0.730     0  02:16      2.85    0.45    0.42
  H0021163             CONDUIT     0.078     0  02:14      1.15    1.31    1.00
  H0020497             CONDUIT     0.000     0  00:00      0.00    0.00    0.68
  H0024325             CONDUIT     0.147     0  02:15      1.76    0.44    0.44
  H0023585             CONDUIT     0.312     0  02:15      2.42    0.72    0.63
  H0024098             CONDUIT     0.113     0  02:15      1.60    1.32    1.00
  H0024235             CONDUIT     0.150     0  02:16      1.38    0.61    0.54
  H0024282             CONDUIT     0.000     0  00:00      0.00    0.00    0.00
  H0024308             CONDUIT     1.026     0  02:17      4.69    0.30    0.38
  H0024498             CONDUIT     0.097     0  02:15      1.37    1.50    1.00
  H0026990             CONDUIT     0.041     0  02:15      0.75    0.31    0.48
  H0041650             CONDUIT     0.169     0  02:15      0.76    0.20    0.38
  H0041011             CONDUIT     0.074     0  02:15      1.11    0.73    1.00
  H0045103             CONDUIT     0.139     0  02:16      0.73    0.17    0.36
  H0045104             CONDUIT     1.014     0  02:17      3.92    0.36    0.43
  H0045105             CONDUIT     0.009     0  02:15      0.37    0.16    0.39
  H0045106             CONDUIT     0.243     0  02:15      2.34    0.33    0.52
  H0045107             CONDUIT     0.043     0  02:15      0.76    0.71    1.00
  H0045108             CONDUIT     0.069     0  02:15      0.98    1.25    1.00
  
  
  ***************************
  Flow Classification Summary
  ***************************
  
  -------------------------------------------------------------------------------------
                      Adjusted    ---------- Fraction of Time in Flow Class ---------- 
                       /Actual         Up    Down  Sub   Sup   Up    Down  Norm  Inlet 
  Conduit               Length    Dry  Dry   Dry   Crit  Crit  Crit  Crit  Ltd   Ctrl  
  -------------------------------------------------------------------------------------
  H0014431                1.00   0.03  0.00  0.00  0.97  0.00  0.00  0.00  0.97  0.00
  H0014433                1.00   0.03  0.00  0.00  0.97  0.00  0.00  0.00  0.97  0.00
  H0014352                1.00   0.03  0.00  0.00  0.95  0.02  0.00  0.00  0.97  0.00
  H0014373                1.00   0.03  0.00  0.00  0.94  0.03  0.00  0.00  0.92  0.00
  H0017981                1.00   0.03  0.00  0.00  0.00  0.00  0.00  0.97  0.00  0.00
  H0017755                1.00   0.03  0.00  0.00  0.00  0.00  0.00  0.97  0.00  0.00
  H0017791                1.00   0.03  0.00  0.00  0.97  0.00  0.00  0.00  0.97  0.00
  H0017357                1.00   0.03  0.97  0.00  0.00  0.00  0.00  0.00  0.97  0.00
  H0018216                1.00   0.03  0.93  0.00  0.04  0.00  0.00  0.00  0.97  0.00
  H0016792                1.00   0.03  0.92  0.00  0.05  0.00  0.00  0.00  0.97  0.00
  H0019507                1.00   0.03  0.00  0.00  0.97  0.00  0.00  0.00  0.97  0.00
  H0019998                1.00   0.03  0.00  0.00  0.94  0.03  0.00  0.00  0.05  0.00
  H0019576                1.00   0.03  0.00  0.00  0.96  0.01  0.00  0.00  0.05  0.00
  H0020087                1.00   0.03  0.96  0.00  0.01  0.00  0.00  0.00  0.97  0.00
  H0020211                1.00   0.03  0.00  0.00  0.97  0.00  0.00  0.00  0.92  0.00
  H0018982                1.00   0.03  0.00  0.00  0.97  0.00  0.00  0.00  0.95  0.00
  H0018753                1.00   0.03  0.00  0.00  0.97  0.00  0.00  0.00  0.97  0.00
  H0018845                1.00   1.00  0.00  0.00  0.00  0.00  0.00  0.00  0.00  0.00
  H0018863                1.00   0.03  0.00  0.00  0.97  0.00  0.00  0.00  0.97  0.00
  H0019156                1.00   1.00  0.00  0.00  0.00  0.00  0.00  0.00  0.00  0.00
  H0018929                1.00   0.03  0.93  0.00  0.04  0.00  0.00  0.00  0.97  0.00
  H0018440                1.00   0.03  0.00  0.00  0.97  0.00  0.00  0.00  0.97  0.00
  H0018456                1.00   0.03  0.00  0.00  0.97  0.00  0.00  0.00  0.97  0.00
  H0018968                1.00   0.03  0.92  0.00  0.02  0.04  0.00  0.00  0.94  0.00
  H0022036                1.00   0.03  0.00  0.00  0.01  0.00  0.00  0.96  0.01  0.00
  H0021806                1.00   0.03  0.93  0.00  0.04  0.00  0.00  0.00  0.97  0.00
  H0022111                1.00   0.03  0.00  0.00  0.97  0.00  0.00  0.00  0.00  0.00
  H0021440                1.00   0.03  0.00  0.00  0.95  0.02  0.00  0.00  0.02  0.00
  H0021704                1.00   0.03  0.00  0.00  0.00  0.00  0.00  0.97  0.00  0.00
  H0020521                1.00   0.03  0.00  0.00  0.97  0.00  0.00  0.00  0.97  0.00
  H0020755                1.00   0.03  0.94  0.00  0.03  0.00  0.00  0.00  0.97  0.00
  H0020530                1.00   0.03  0.00  0.00  0.96  0.02  0.00  0.00  0.01  0.00
  H0020618                1.00   0.03  0.00  0.00  0.95  0.03  0.00  0.00  0.93  0.00
  H0021163                1.00   0.03  0.00  0.00  0.97  0.00  0.00  0.00  0.94  0.00
  H0020497                1.20   0.03  0.97  0.00  0.00  0.00  0.00  0.00  0.00  0.00
  H0024325                1.00   0.03  0.00  0.00  0.95  0.02  0.00  0.00  0.94  0.00
  H0023585                1.00   0.03  0.00  0.00  0.00  0.00  0.00  0.97  0.00  0.00
  H0024098                1.00   0.03  0.93  0.00  0.04  0.00  0.00  0.00  0.97  0.00
  H0024235                1.00   0.03  0.00  0.00  0.00  0.00  0.00  0.97  0.00  0.00
  H0024282                1.00   1.00  0.00  0.00  0.00  0.00  0.00  0.00  0.00  0.00
  H0024308                1.00   0.03  0.00  0.00  0.92  0.05  0.00  0.00  0.01  0.00
  H0024498                1.00   0.03  0.00  0.00  0.00  0.00  0.00  0.97  0.00  0.00
  H0026990                1.00   0.03  0.00  0.00  0.97  0.00  0.00  0.00  0.97  0.00
  H0041650                1.00   0.96  0.01  0.00  0.03  0.00  0.00  0.00  0.97  0.00
  H0041011                1.00   0.03  0.00  0.00  0.97  0.00  0.00  0.00  0.97  0.00
  H0045103                1.00   0.03  0.00  0.00  0.97  0.00  0.00  0.00  0.95  0.00
  H0045104                1.00   0.03  0.00  0.00  0.93  0.04  0.00  0.00  0.05  0.00
  H0045105                1.00   0.03  0.00  0.00  0.97  0.00  0.00  0.00  0.97  0.00
  H0045106                1.00   0.03  0.00  0.00  0.95  0.02  0.00  0.00  0.97  0.00
  H0045107                1.00   0.03  0.00  0.00  0.97  0.00  0.00  0.00  0.97  0.00
  H0045108                1.00   0.03  0.00  0.00  0.97  0.00  0.00  0.00  0.97  0.00
  
  
  *************************
  Conduit Surcharge Summary
  *************************
  
  ----------------------------------------------------------------------------
                                                           Hours        Hours 
                         --------- Hours Full --------   Above Full   Capacity
  Conduit                Both Ends  Upstream  Dnstream   Normal Flow   Limited
  ----------------------------------------------------------------------------
  H0014431                    0.07      0.08      0.07      0.10         0.07
  H0014433                    0.01      0.01      0.04      0.01         0.01
  H0017981                    0.01      0.01      0.01      0.11         0.01
  H0017755                    0.01      0.01      0.01      0.03         0.01
  H0017357                    0.01      0.01      0.02      0.01         0.01
  H0018216                    0.01      0.04      0.01      0.07         0.03
  H0019507                    0.01      0.01      0.07      0.01         0.01
  H0020211                    0.01      0.01      0.01      0.08         0.01
  H0018753                    0.02      0.02      0.08      0.01         0.01
  H0018863                    0.07      0.07      0.08      0.01         0.01
  H0018440                    0.06      0.10      0.06      0.13         0.09
  H0021806                    0.01      0.01      0.01      0.04         0.01
  H0020521                    0.01      0.01      0.04      0.01         0.01
  H0021163                    0.03      0.04      0.04      0.05         0.03
  H0024098                    0.08      0.08      0.11      0.06         0.04
  H0024498                    0.01      0.07      0.01      0.10         0.05
  H0041011                    0.04      0.04      0.08      0.01         0.01
  H0045107                    0.05      0.05      0.08      0.01         0.01
  H0045108                    0.08      0.08      0.10      0.04         0.04
  

  Analysis begun on:  Fri Mar 22 15:56:33 2024
  Analysis ended on:  Fri Mar 22 15:56:42 2024
  Total elapsed time: 00:00:09