
  EPA STORM WATER MANAGEMENT MODEL - VERSION 5.2 (Build 5.2.4)
  PYSWMM TOOLKIT API - VERSION v1.0 (2023-11-27)
  ------------------------------------------------------------

  Gievenbeck_e2_T10D540 
  
  ****************
  Analysis Options
  ****************
  Flow Units ............... CMS
  Process Models:
    Rainfall/Runoff ........ YES
    RDII ................... NO
    Snowmelt ............... NO
    Groundwater ............ NO
    Flow Routing ........... YES
    Ponding Allowed ........ NO
    Water Quality .......... NO
  Infiltration Method ...... HORTON
  Flow Routing Method ...... DYNWAVE
  Surcharge Method ......... SLOT
  Starting Date ............ 01/01/2024 00:00:00
  Ending Date .............. 01/04/2024 04:00:00
  Antecedent Dry Days ...... 14.0
  Report Time Step ......... 00:01:00
  Wet Time Step ............ 00:01:00
  Dry Time Step ............ 00:01:00
  Routing Time Step ........ 1.00 sec
  Variable Time Step ....... YES
  Maximum Trials ........... 8
  Number of Threads ........ 1
  Head Tolerance ........... 0.001500 m
  
  
  **************************        Volume         Depth
  Runoff Quantity Continuity     hectare-m            mm
  **************************     ---------       -------
  Total Precipitation ......         0.499        49.280
  Evaporation Loss .........         0.010         0.950
  Infiltration Loss ........         0.236        23.350
  Surface Runoff ...........         0.253        25.029
  Final Storage ............         0.000         0.000
  Continuity Error (%) .....        -0.101
  
  
  **************************        Volume        Volume
  Flow Routing Continuity        hectare-m      10^6 ltr
  **************************     ---------     ---------
  Dry Weather Inflow .......         0.000         0.000
  Wet Weather Inflow .......         0.253         2.534
  Groundwater Inflow .......         0.000         0.000
  RDII Inflow ..............         0.000         0.000
  External Inflow ..........         0.000         0.000
  External Outflow .........         0.251         2.508
  Flooding Loss ............         0.002         0.025
  Evaporation Loss .........         0.000         0.000
  Exfiltration Loss ........         0.000         0.000
  Initial Stored Volume ....         0.000         0.000
  Final Stored Volume ......         0.000         0.000
  Continuity Error (%) .....         0.053
  
  
  *************************
  Highest Continuity Errors
  *************************
  Node R0019373 (1.16%)
  
  
  ***************************
  Time-Step Critical Elements
  ***************************
  None
  
  
  ********************************
  Highest Flow Instability Indexes
  ********************************
  All links are stable.
  
  
  *********************************
  Most Frequent Nonconverging Nodes
  *********************************
  Convergence obtained at all time steps.
  
  
  *************************
  Routing Time Step Summary
  *************************
  Minimum Time Step           :     0.22 sec
  Average Time Step           :     1.00 sec
  Maximum Time Step           :     1.00 sec
  % of Time in Steady State   :     0.00
  Average Iterations per Step :     2.00
  % of Steps Not Converging   :     0.00
  Time Step Frequencies       :
      1.000 -  0.871 sec      :    99.99 %
      0.871 -  0.758 sec      :     0.00 %
      0.758 -  0.660 sec      :     0.00 %
      0.660 -  0.574 sec      :     0.00 %
      0.574 -  0.500 sec      :     0.00 %
  
  
  ***************************
  Subcatchment Runoff Summary
  ***************************
  
  ------------------------------------------------------------------------------------------------------------------------------
                            Total      Total      Total      Total     Imperv       Perv      Total       Total     Peak  Runoff
                           Precip      Runon       Evap      Infil     Runoff     Runoff     Runoff      Runoff   Runoff   Coeff
  Subcatchment                 mm         mm         mm         mm         mm         mm         mm    10^6 ltr      CMS
  ------------------------------------------------------------------------------------------------------------------------------
  EZG_368                   49.28       0.00       0.94      23.51      23.73       4.70      24.87        0.10     0.11   0.505
  EZG_392                   49.28       0.00       0.94      23.37      23.73       4.85      25.02        0.08     0.09   0.508
  EZG_352                   49.28       0.00       0.95      23.73      23.72       4.48      24.64        0.15     0.15   0.500
  EZG_372                   49.28       0.00       0.93      22.90      23.75       5.33      25.51        0.03     0.04   0.518
  EZG_416                   49.28       0.00       0.94      23.31      23.74       4.91      25.08        0.07     0.08   0.509
  EZG_388                   49.28       0.00       0.95      23.57      23.73       4.64      24.81        0.11     0.12   0.503
  EZG_394                   49.28       0.00       0.94      23.28      23.74       4.94      25.11        0.07     0.08   0.510
  EZG_400                   49.28       0.00       0.94      23.24      23.74       4.98      25.15        0.06     0.07   0.510
  EZG_390                   49.28       0.00       0.94      23.36      23.73       4.86      25.03        0.08     0.09   0.508
  EZG_350                   49.28       0.00       0.95      23.58      23.73       4.64      24.80        0.11     0.12   0.503
  EZG_370                   49.28       0.00       0.94      23.43      23.73       4.79      24.96        0.09     0.10   0.506
  EZG_398                   49.28       0.00       0.93      22.75      23.76       5.48      25.67        0.03     0.03   0.521
  EZG_382                   49.28       0.00       0.93      22.70      23.76       5.54      25.73        0.02     0.03   0.522
  EZG_374                   49.28       0.00       1.14      19.26      28.47       4.74      28.93        0.11     0.12   0.587
  EZG_412                   49.28       0.00       0.92      22.36      23.77       5.89      26.09        0.01     0.01   0.530
  EZG_344                   49.28       0.00       0.94      23.23      23.74       4.99      25.17        0.06     0.07   0.511
  EZG_376                   49.28       0.00       0.94      23.10      23.74       5.12      25.30        0.05     0.06   0.513
  EZG_356                   49.28       0.00       0.95      23.78      23.72       4.43      24.59        0.16     0.16   0.499
  EZG_386                   49.28       0.00       0.95      23.92      23.71       4.28      24.44        0.20     0.19   0.496
  EZG_380                   49.28       0.00       0.94      23.48      23.73       4.74      24.91        0.10     0.11   0.505
  EZG_378                   49.28       0.00       0.94      23.40      23.73       4.81      24.98        0.09     0.09   0.507
  EZG_414                   49.28       0.00       0.93      22.69      23.76       5.54      25.74        0.02     0.03   0.522
  EZG_402                   49.28       0.00       0.94      23.37      23.73       4.84      25.02        0.08     0.09   0.508
  EZG_358                   49.28       0.00       0.95      23.78      23.72       4.43      24.59        0.16     0.16   0.499
  EZG_364                   49.28       0.00       0.95      23.78      23.72       4.43      24.59        0.16     0.16   0.499
  EZG_410                   49.28       0.00       0.94      23.13      23.74       5.09      25.27        0.05     0.06   0.513
  EZG_366                   49.28       0.00       0.94      23.20      23.74       5.02      25.20        0.06     0.07   0.511
  EZG_18259                 49.28       0.00       0.94      23.20      23.74       5.02      25.20        0.06     0.07   0.511
  EZG_18258                 49.28       0.00       0.93      22.54      23.77       5.70      25.91        0.02     0.02   0.526
  EZG_346                   49.28       0.00       0.92      23.86      23.26       4.78      24.55        0.09     0.10   0.498
  EZG_348                   49.28       0.00       0.92      23.58      23.27       5.07      24.84        0.06     0.06   0.504
  
  
  ******************
  Node Depth Summary
  ******************
  
  ---------------------------------------------------------------------------------
                                 Average  Maximum  Maximum  Time of Max    Reported
                                   Depth    Depth      HGL   Occurrence   Max Depth
  Node                 Type       Meters   Meters   Meters  days hr:min      Meters
  ---------------------------------------------------------------------------------
  R0019466             JUNCTION     0.01     1.36    70.81     0  05:05        1.32
  R0019468             JUNCTION     0.01     1.28    70.59     0  05:05        1.22
  R0019831             JUNCTION     0.00     1.57    70.74     0  05:05        1.56
  R0019825             JUNCTION     0.01     1.50    70.34     0  05:03        1.50
  R0019843             JUNCTION     0.01     1.10    68.73     0  05:06        0.93
  R0019368             JUNCTION     0.02     1.36    68.15     0  05:05        1.23
  R0019369             JUNCTION     0.01     0.71    67.30     0  05:06        0.69
  R0019370             JUNCTION     0.01     0.58    66.48     0  05:06        0.57
  R0019345             JUNCTION     0.01     1.05    70.95     0  05:05        0.95
  R0019346             JUNCTION     0.01     0.82    70.62     0  05:05        0.73
  R0043600             JUNCTION     0.01     0.58    70.25     0  05:05        0.57
  R0019203             JUNCTION     0.01     0.58    70.12     0  05:05        0.57
  R0043594             JUNCTION     0.01     0.44    70.17     0  05:06        0.44
  R0021458             JUNCTION     0.01     0.50    70.15     0  05:05        0.50
  R0019202             JUNCTION     0.01     0.55    70.13     0  05:05        0.54
  R0019373             JUNCTION     0.00     1.08    70.75     0  05:05        1.05
  R0019254             JUNCTION     0.01     1.82    71.86     0  05:05        1.81
  R0019716             JUNCTION     0.01     0.66    69.67     0  05:05        0.66
  R0019946             JUNCTION     0.02     0.92    69.54     0  05:05        0.92
  R0013935             JUNCTION     0.00     1.42    70.25     0  05:05        1.40
  R0019939             JUNCTION     0.01     1.42    69.99     0  05:05        1.40
  R0019944             JUNCTION     0.01     0.59    68.87     0  05:06        0.59
  R0043703             JUNCTION     0.01     0.69    69.29     0  05:06        0.69
  R0019945             JUNCTION     0.01     0.70    69.10     0  05:06        0.70
  R0039621             JUNCTION     0.00     0.30    69.87     0  05:05        0.30
  R0019838             JUNCTION     0.01     0.41    69.87     0  05:05        0.41
  R0039606             JUNCTION     0.01     0.54    70.13     0  05:05        0.53
  R0019204             JUNCTION     0.00     0.00    69.91     0  00:00        0.00
  R0019205             JUNCTION     0.00     0.00    69.62     0  00:00        0.00
  R0019849             JUNCTION     0.01     1.20    69.72     0  05:05        1.17
  R0019371             JUNCTION     0.00     0.00    70.41     0  00:00        0.00
  R0019718             JUNCTION     0.01     0.67    70.09     0  05:05        0.67
  R0021442             JUNCTION     0.01     2.05    72.10     0  05:03        2.05
  R0019247             JUNCTION     0.01     1.08    70.96     0  05:05        1.08
  R0019719             JUNCTION     0.01     0.63    70.31     0  05:05        0.56
  R0019767             JUNCTION     0.01     0.62    65.35     0  05:06        0.62
  R0019768             JUNCTION     0.01     0.52    64.29     0  05:07        0.51
  R0021453             JUNCTION     0.00     0.23    70.18     0  05:05        0.22
  R0019839             JUNCTION     0.01     0.46    69.85     0  05:05        0.40
  R0019717             JUNCTION     0.01     0.62    69.96     0  05:05        0.60
  R0019252             JUNCTION     0.01     1.94    72.13     0  05:04        1.94
  R0019721             JUNCTION     0.00     0.87    70.74     0  05:05        0.76
  R0019942             JUNCTION     0.01     1.20    69.85     0  05:05        1.17
  R0019206             JUNCTION     0.00     0.00    69.07     0  00:00        0.00
  R0019840             JUNCTION     0.01     0.76    69.73     0  05:04        0.75
  R0043702             JUNCTION     0.01     0.97    69.67     0  05:05        0.91
  R0019723             JUNCTION     0.00     0.72    70.80     0  05:05        0.61
  R0019724             JUNCTION     0.00     0.63    70.79     0  05:05        0.63
  R0021433             JUNCTION     0.01     2.15    72.54     0  05:03        2.15
  R0021435             JUNCTION     0.01     2.11    72.29     0  05:03        2.11
  R0019769             OUTFALL      0.01     0.51    63.89     0  05:07        0.51
  
  
  *******************
  Node Inflow Summary
  *******************
  
  -------------------------------------------------------------------------------------------------
                                  Maximum  Maximum                  Lateral       Total        Flow
                                  Lateral    Total  Time of Max      Inflow      Inflow     Balance
                                   Inflow   Inflow   Occurrence      Volume      Volume       Error
  Node                 Type           CMS      CMS  days hr:min    10^6 ltr    10^6 ltr     Percent
  -------------------------------------------------------------------------------------------------
  R0019466             JUNCTION     0.111    0.111     0  05:05       0.103       0.168       0.063
  R0019468             JUNCTION     0.070    0.149     0  05:04      0.0603       0.223      -0.030
  R0019831             JUNCTION     0.090    0.090     0  05:05       0.081       0.081       0.100
  R0019825             JUNCTION     0.091    0.179     0  05:05      0.0813       0.162       0.140
  R0019843             JUNCTION     0.000    2.102     0  05:06           0        2.51      -0.015
  R0019368             JUNCTION     0.000    2.102     0  05:05           0        2.51      -0.021
  R0019369             JUNCTION     0.000    2.100     0  05:06           0        2.51      -0.014
  R0019370             JUNCTION     0.000    2.085     0  05:06           0        2.51       0.001
  R0019345             JUNCTION     0.000    0.155     0  05:04           0       0.158       0.018
  R0019346             JUNCTION     0.014    0.267     0  05:05      0.0104       0.266       0.002
  R0043600             JUNCTION     0.000    0.211     0  05:05           0       0.289      -0.073
  R0019203             JUNCTION     0.029    0.630     0  05:05      0.0227       0.698      -0.009
  R0043594             JUNCTION     0.150    0.210     0  05:04       0.146       0.209      -0.005
  R0021458             JUNCTION     0.122    0.277     0  05:05       0.114       0.323       0.001
  R0019202             JUNCTION     0.043    0.404     0  05:05      0.0345       0.386      -0.306
  R0019373             JUNCTION     0.099    0.126     0  05:05      0.0895      0.0943       1.178
  R0019254             JUNCTION     0.083    0.162     0  05:04      0.0731       0.158       0.040
  R0019716             JUNCTION     0.121    1.289     0  05:05       0.113        1.42      -0.008
  R0019946             JUNCTION     0.000    1.277     0  05:05           0        1.42       0.001
  R0013935             JUNCTION     0.079    0.079     0  05:05      0.0697      0.0697       0.077
  R0019939             JUNCTION     0.032    0.107     0  05:05      0.0254       0.095      -0.073
  R0019944             JUNCTION     0.074    1.575     0  05:06      0.0648        1.82       0.012
  R0043703             JUNCTION     0.089    1.338     0  05:05      0.0792         1.5       0.008
  R0019945             JUNCTION     0.000    1.532     0  05:06           0        1.75      -0.008
  R0039621             JUNCTION     0.000    0.010     0  05:01           0     0.00199       0.460
  R0019838             JUNCTION     0.161    0.161     0  05:05       0.158        0.16      -0.013
  R0039606             JUNCTION     0.000    0.266     0  05:06           0       0.323       0.023
  R0019204             JUNCTION     0.000    0.000     0  00:00           0           0       0.000 ltr
  R0019205             JUNCTION     0.000    0.000     0  00:00           0           0       0.000 ltr
  R0019849             JUNCTION     0.000    0.206     0  05:05           0        0.25       0.003
  R0019371             JUNCTION     0.000    0.000     0  00:00           0           0       0.000 ltr
  R0019718             JUNCTION     0.106    0.710     0  05:05       0.097       0.795      -0.524
  R0021442             JUNCTION     0.118    0.190     0  05:05        0.11       0.242       0.033
  R0019247             JUNCTION     0.060    0.213     0  05:05      0.0505       0.289       0.087
  R0019719             JUNCTION     0.062    0.321     0  05:05      0.0531        0.32       0.470
  R0019767             JUNCTION     0.000    2.098     0  05:06           0        2.51      -0.003
  R0019768             JUNCTION     0.000    2.101     0  05:07           0        2.51       0.006
  R0021453             JUNCTION     0.073    0.073     0  05:05      0.0636      0.0636      -0.078
  R0019839             JUNCTION     0.159    0.307     0  05:05       0.156       0.313       0.040
  R0019717             JUNCTION     0.194    1.189     0  05:05       0.195        1.31       0.225
  R0019252             JUNCTION     0.095    0.095     0  05:05      0.0856      0.0856      -0.025
  R0019721             JUNCTION     0.029    0.112     0  05:05      0.0224      0.0983       0.072
  R0019942             JUNCTION     0.000    0.123     0  05:03           0       0.154      -0.218
  R0019206             JUNCTION     0.000    0.000     0  00:00           0           0       0.000 ltr
  R0019840             JUNCTION     0.000    0.429     0  05:04           0       0.536      -0.027
  R0043702             JUNCTION     0.160    0.578     0  05:04       0.156       0.692       0.350
  R0019723             JUNCTION     0.069    0.092     0  05:05      0.0599      0.0758      -0.150
  R0019724             JUNCTION     0.021    0.023     0  05:04      0.0159      0.0159      -0.203
  R0021433             JUNCTION     0.098    0.098     0  05:05      0.0893      0.0893      -0.087
  R0021435             JUNCTION     0.065    0.136     0  05:05      0.0553       0.142      -0.075
  R0019769             OUTFALL      0.000    2.111     0  05:07           0        2.51       0.000
  
  
  **********************
  Node Surcharge Summary
  **********************
  
  Surcharging occurs when water rises above the top of the highest conduit.
  ---------------------------------------------------------------------
                                               Max. Height   Min. Depth
                                   Hours       Above Crown    Below Rim
  Node                 Type      Surcharged         Meters       Meters
  ---------------------------------------------------------------------
  R0019466             JUNCTION        0.17          1.059        1.451
  R0019468             JUNCTION        0.16          0.977        1.453
  R0019831             JUNCTION        0.11          1.268        0.092
  R0019825             JUNCTION        0.15          1.200        0.000
  R0019843             JUNCTION        0.02          0.196        2.424
  R0019368             JUNCTION        0.06          0.463        0.587
  R0019345             JUNCTION        0.11          0.748        1.002
  R0019346             JUNCTION        0.07          0.423        1.317
  R0043600             JUNCTION        0.09          0.175        2.405
  R0019373             JUNCTION        0.11          0.776        1.724
  R0019254             JUNCTION        0.12          1.523        0.307
  R0019946             JUNCTION        0.02          0.021        1.499
  R0013935             JUNCTION        0.11          1.123        0.197
  R0019939             JUNCTION        0.17          1.125        0.495
  R0019849             JUNCTION        0.18          0.905        1.025
  R0021442             JUNCTION        0.18          1.750        0.000
  R0019247             JUNCTION        0.11          0.679        1.181
  R0019719             JUNCTION        0.03          0.129        1.671
  R0019252             JUNCTION        0.10          1.640        0.000
  R0019721             JUNCTION        0.06          0.471        1.089
  R0019942             JUNCTION        0.15          0.897        0.753
  R0019840             JUNCTION        0.04          0.256        2.314
  R0043702             JUNCTION        0.06          0.471        2.439
  R0019723             JUNCTION        0.03          0.322        0.998
  R0019724             JUNCTION        0.03          0.332        1.118
  R0021433             JUNCTION        0.14          1.850        0.000
  R0021435             JUNCTION        0.16          1.810        0.000
  
  
  *********************
  Node Flooding Summary
  *********************
  
  Flooding refers to all water that overflows a node, whether it ponds or not.
  --------------------------------------------------------------------------
                                                             Total   Maximum
                                 Maximum   Time of Max       Flood    Ponded
                        Hours       Rate    Occurrence      Volume     Depth
  Node                 Flooded       CMS   days hr:min    10^6 ltr    Meters
  --------------------------------------------------------------------------
  R0019825                0.05     0.075      0  05:05       0.008     0.000
  R0021442                0.04     0.037      0  05:05       0.003     0.000
  R0019252                0.02     0.019      0  05:05       0.001     0.000
  R0021433                0.04     0.027      0  05:05       0.003     0.000
  R0021435                0.06     0.064      0  05:05       0.010     0.000
  
  
  ***********************
  Outfall Loading Summary
  ***********************
  
  -----------------------------------------------------------
                         Flow       Avg       Max       Total
                         Freq      Flow      Flow      Volume
  Outfall Node           Pcnt       CMS       CMS    10^6 ltr
  -----------------------------------------------------------
  R0019769              14.34     0.064     2.111       2.508
  -----------------------------------------------------------
  System                14.34     0.064     2.111       2.508
  
  
  ********************
  Link Flow Summary
  ********************
  
  -----------------------------------------------------------------------------
                                 Maximum  Time of Max   Maximum    Max/    Max/
                                  |Flow|   Occurrence   |Veloc|    Full    Full
  Link                 Type          CMS  days hr:min     m/sec    Flow   Depth
  -----------------------------------------------------------------------------
  H0014431             CONDUIT     0.081     0  05:04      1.14    1.49    1.00
  H0014433             CONDUIT     0.090     0  05:05      1.27    1.15    1.00
  H0014352             CONDUIT     2.102     0  05:05      3.30    0.86    1.00
  H0014373             CONDUIT     2.085     0  05:06      4.29    0.96    0.72
  H0017981             CONDUIT     0.149     0  05:05      2.10    4.21    1.00
  H0017755             CONDUIT     0.211     0  05:05      1.68    1.71    1.00
  H0017791             CONDUIT     0.167     0  05:06      0.69    0.24    0.52
  H0017357             CONDUIT     0.124     0  05:05      1.75    1.98    1.00
  H0018216             CONDUIT     0.155     0  05:04      2.20    2.83    1.00
  H0016792             CONDUIT     1.277     0  05:05      2.16    0.73    0.88
  H0019507             CONDUIT     0.075     0  05:05      1.07    1.05    1.00
  H0019998             CONDUIT     1.625     0  05:06      3.45    0.65    0.92
  H0019576             CONDUIT     1.341     0  05:06      2.56    0.90    0.77
  H0020087             CONDUIT     0.014     0  05:06      0.18    0.06    0.72
  H0020211             CONDUIT     1.280     0  05:06      2.14    3.19    0.89
  H0018982             CONDUIT     0.266     0  05:06      0.83    0.43    0.58
  H0018753             CONDUIT     0.040     0  05:01      0.64    0.56    1.00
  H0018845             CONDUIT     0.000     0  00:00      0.00    0.00    0.00
  H0018863             CONDUIT     0.105     0  05:05      1.48    2.46    1.00
  H0019156             CONDUIT     0.000     0  00:00      0.00    0.00    0.00
  H0018929             CONDUIT     0.629     0  05:05      1.38    0.55    0.69
  H0018440             CONDUIT     0.161     0  05:03      2.28    2.89    1.00
  H0018456             CONDUIT     0.269     0  05:05      2.14    1.63    1.00
  H0018968             CONDUIT     2.101     0  05:07      5.01    0.81    0.63
  H0022036             CONDUIT     0.067     0  05:04      0.53    0.05    0.35
  H0021806             CONDUIT     0.211     0  05:05      1.68    1.87    1.00
  H0022111             CONDUIT     0.151     0  05:05      0.94    1.08    0.86
  H0021440             CONDUIT     1.193     0  05:05      2.51    0.77    0.71
  H0021704             CONDUIT     0.712     0  05:06      1.62    1.36    0.69
  H0020521             CONDUIT     0.082     0  05:04      1.16    1.66    1.00
  H0020755             CONDUIT     0.109     0  05:05      0.87    1.20    1.00
  H0020530             CONDUIT     2.100     0  05:06      3.30    1.80    1.00
  H0020618             CONDUIT     1.530     0  05:06      3.27    0.95    0.72
  H0021163             CONDUIT     0.123     0  05:03      1.73    2.05    1.00
  H0020497             CONDUIT     0.000     0  00:00      0.00    0.00    1.00
  H0024325             CONDUIT     0.288     0  05:04      1.87    0.86    1.00
  H0023585             CONDUIT     0.555     0  05:05      2.83    1.28    1.00
  H0024098             CONDUIT     0.204     0  05:05      2.89    2.39    1.00
  H0024235             CONDUIT     0.321     0  05:05      1.63    1.31    1.00
  H0024282             CONDUIT     0.000     0  00:00      0.00    0.00    0.00
  H0024308             CONDUIT     2.111     0  05:07      5.64    0.62    0.57
  H0024498             CONDUIT     0.145     0  05:05      2.05    2.24    1.00
  H0026990             CONDUIT     0.086     0  05:05      0.81    0.65    1.00
  H0041650             CONDUIT     0.403     0  05:05      0.98    0.47    0.63
  H0041011             CONDUIT     0.117     0  05:03      1.65    1.16    1.00
  H0045103             CONDUIT     0.288     0  05:07      0.87    0.36    0.61
  H0045104             CONDUIT     2.098     0  05:06      4.68    0.74    0.66
  H0045105             CONDUIT     0.024     0  05:05      0.43    0.42    1.00
  H0045106             CONDUIT     0.422     0  05:04      2.40    0.57    1.00
  H0045107             CONDUIT     0.072     0  05:05      1.01    1.18    1.00
  H0045108             CONDUIT     0.091     0  05:07      1.28    1.63    1.00
  
  
  ***************************
  Flow Classification Summary
  ***************************
  
  -------------------------------------------------------------------------------------
                      Adjusted    ---------- Fraction of Time in Flow Class ---------- 
                       /Actual         Up    Down  Sub   Sup   Up    Down  Norm  Inlet 
  Conduit               Length    Dry  Dry   Dry   Crit  Crit  Crit  Crit  Ltd   Ctrl  
  -------------------------------------------------------------------------------------
  H0014431                1.00   0.03  0.00  0.00  0.97  0.00  0.00  0.00  0.96  0.00
  H0014433                1.00   0.03  0.00  0.00  0.97  0.00  0.00  0.00  0.96  0.00
  H0014352                1.00   0.03  0.00  0.00  0.85  0.12  0.00  0.00  0.96  0.00
  H0014373                1.00   0.03  0.00  0.00  0.83  0.14  0.00  0.00  0.81  0.00
  H0017981                1.00   0.03  0.00  0.00  0.00  0.00  0.00  0.96  0.00  0.00
  H0017755                1.00   0.03  0.00  0.00  0.00  0.00  0.00  0.96  0.00  0.00
  H0017791                1.00   0.03  0.00  0.00  0.97  0.00  0.00  0.00  0.96  0.00
  H0017357                1.00   0.03  0.96  0.00  0.00  0.00  0.00  0.00  0.93  0.00
  H0018216                1.00   0.03  0.82  0.00  0.14  0.00  0.00  0.00  0.96  0.00
  H0016792                1.00   0.03  0.81  0.00  0.15  0.00  0.00  0.00  0.96  0.00
  H0019507                1.00   0.03  0.00  0.00  0.97  0.00  0.00  0.00  0.96  0.00
  H0019998                1.00   0.03  0.00  0.00  0.83  0.14  0.00  0.00  0.15  0.00
  H0019576                1.00   0.03  0.00  0.00  0.85  0.11  0.00  0.00  0.14  0.00
  H0020087                1.00   0.03  0.95  0.00  0.02  0.00  0.00  0.00  0.93  0.00
  H0020211                1.00   0.03  0.00  0.00  0.97  0.00  0.00  0.00  0.81  0.00
  H0018982                1.00   0.03  0.00  0.00  0.97  0.00  0.00  0.00  0.84  0.00
  H0018753                1.00   0.03  0.00  0.00  0.97  0.00  0.00  0.00  0.96  0.00
  H0018845                1.00   1.00  0.00  0.00  0.00  0.00  0.00  0.00  0.00  0.00
  H0018863                1.00   0.03  0.00  0.00  0.97  0.00  0.00  0.00  0.96  0.00
  H0019156                1.00   1.00  0.00  0.00  0.00  0.00  0.00  0.00  0.00  0.00
  H0018929                1.00   0.03  0.82  0.00  0.15  0.00  0.00  0.00  0.96  0.00
  H0018440                1.00   0.03  0.00  0.00  0.97  0.00  0.00  0.00  0.96  0.00
  H0018456                1.00   0.03  0.00  0.00  0.97  0.00  0.00  0.00  0.96  0.00
  H0018968                1.00   0.03  0.00  0.00  0.82  0.14  0.00  0.00  0.83  0.00
  H0022036                1.00   0.03  0.00  0.00  0.03  0.04  0.00  0.89  0.03  0.00
  H0021806                1.00   0.03  0.82  0.00  0.14  0.00  0.00  0.00  0.85  0.00
  H0022111                1.00   0.03  0.00  0.00  0.97  0.00  0.00  0.00  0.00  0.00
  H0021440                1.00   0.03  0.00  0.00  0.85  0.12  0.00  0.00  0.02  0.00
  H0021704                1.00   0.03  0.00  0.00  0.00  0.00  0.00  0.96  0.00  0.00
  H0020521                1.00   0.03  0.00  0.00  0.97  0.00  0.00  0.00  0.96  0.00
  H0020755                1.00   0.03  0.83  0.00  0.14  0.00  0.00  0.00  0.96  0.00
  H0020530                1.00   0.03  0.00  0.00  0.85  0.12  0.00  0.00  0.01  0.00
  H0020618                1.00   0.03  0.00  0.00  0.84  0.13  0.00  0.00  0.84  0.00
  H0021163                1.00   0.03  0.00  0.00  0.95  0.01  0.00  0.00  0.83  0.00
  H0020497                1.20   0.03  0.97  0.00  0.00  0.00  0.00  0.00  0.00  0.00
  H0024325                1.00   0.03  0.00  0.00  0.85  0.12  0.00  0.00  0.84  0.00
  H0023585                1.00   0.03  0.00  0.00  0.00  0.00  0.00  0.97  0.00  0.00
  H0024098                1.00   0.03  0.82  0.00  0.14  0.00  0.00  0.00  0.96  0.00
  H0024235                1.00   0.03  0.00  0.00  0.00  0.00  0.00  0.96  0.00  0.00
  H0024282                1.00   1.00  0.00  0.00  0.00  0.00  0.00  0.00  0.00  0.00
  H0024308                1.00   0.03  0.00  0.00  0.81  0.15  0.00  0.00  0.06  0.00
  H0024498                1.00   0.03  0.00  0.00  0.00  0.00  0.00  0.97  0.00  0.00
  H0026990                1.00   0.03  0.00  0.00  0.97  0.00  0.00  0.00  0.96  0.00
  H0041650                1.00   0.85  0.01  0.00  0.14  0.00  0.00  0.00  0.95  0.00
  H0041011                1.00   0.03  0.00  0.00  0.96  0.00  0.00  0.00  0.96  0.00
  H0045103                1.00   0.03  0.00  0.00  0.97  0.00  0.00  0.00  0.85  0.00
  H0045104                1.00   0.03  0.00  0.00  0.82  0.14  0.00  0.00  0.15  0.00
  H0045105                1.00   0.03  0.00  0.00  0.97  0.00  0.00  0.00  0.96  0.00
  H0045106                1.00   0.03  0.82  0.00  0.02  0.12  0.00  0.00  0.96  0.00
  H0045107                1.00   0.03  0.00  0.00  0.97  0.00  0.00  0.00  0.96  0.00
  H0045108                1.00   0.03  0.00  0.00  0.97  0.00  0.00  0.00  0.96  0.00
  
  
  *************************
  Conduit Surcharge Summary
  *************************
  
  ----------------------------------------------------------------------------
                                                           Hours        Hours 
                         --------- Hours Full --------   Above Full   Capacity
  Conduit                Both Ends  Upstream  Dnstream   Normal Flow   Limited
  ----------------------------------------------------------------------------
  H0014431                    0.16      0.17      0.16      0.18         0.16
  H0014433                    0.11      0.11      0.15      0.03         0.03
  H0014352                    0.02      0.02      0.06      0.01         0.01
  H0017981                    0.07      0.11      0.07      0.19         0.10
  H0017755                    0.07      0.09      0.07      0.13         0.08
  H0017357                    0.01      0.01      0.11      0.07         0.01
  H0018216                    0.11      0.12      0.11      0.15         0.12
  H0016792                    0.01      0.01      0.02      0.01         0.01
  H0019507                    0.11      0.11      0.17      0.01         0.01
  H0019998                    0.01      0.01      0.02      0.01         0.01
  H0020211                    0.01      0.02      0.01      0.18         0.01
  H0018753                    0.11      0.11      0.17      0.01         0.01
  H0018863                    0.17      0.17      0.18      0.11         0.10
  H0018440                    0.14      0.18      0.14      0.21         0.17
  H0018456                    0.06      0.07      0.06      0.09         0.07
  H0021806                    0.09      0.11      0.09      0.13         0.10
  H0022111                    0.01      0.01      0.01      0.01         0.01
  H0021704                    0.01      0.01      0.01      0.08         0.01
  H0020521                    0.10      0.10      0.12      0.09         0.08
  H0020755                    0.06      0.06      0.07      0.02         0.02
  H0020530                    0.01      0.06      0.01      0.11         0.05
  H0021163                    0.14      0.15      0.15      0.14         0.12
  H0024325                    0.01      0.01      0.04      0.01         0.01
  H0023585                    0.03      0.06      0.03      0.07         0.06
  H0024098                    0.18      0.18      0.21      0.15         0.14
  H0024235                    0.01      0.03      0.01      0.05         0.02
  H0024498                    0.04      0.16      0.04      0.19         0.13
  H0026990                    0.03      0.03      0.06      0.01         0.01
  H0041011                    0.15      0.15      0.18      0.07         0.05
  H0045105                    0.03      0.03      0.04      0.01         0.01
  H0045106                    0.04      0.04      0.06      0.01         0.01
  H0045107                    0.14      0.14      0.16      0.05         0.05
  H0045108                    0.16      0.16      0.18      0.13         0.13
  

  Analysis begun on:  Fri Mar 22 15:55:46 2024
  Analysis ended on:  Fri Mar 22 15:55:56 2024
  Total elapsed time: 00:00:10