
  EPA STORM WATER MANAGEMENT MODEL - VERSION 5.2 (Build 5.2.4)
  PYSWMM TOOLKIT API - VERSION v1.0 (2023-11-27)
  ------------------------------------------------------------

  Gievenbeck_2021-06-19 23 35 00_hN8 92 
  
  ****************
  Analysis Options
  ****************
  Flow Units ............... CMS
  Process Models:
    Rainfall/Runoff ........ YES
    RDII ................... NO
    Snowmelt ............... NO
    Groundwater ............ NO
    Flow Routing ........... YES
    Ponding Allowed ........ NO
    Water Quality .......... NO
  Infiltration Method ...... HORTON
  Flow Routing Method ...... DYNWAVE
  Surcharge Method ......... SLOT
  Starting Date ............ 01/01/2024 00:00:00
  Ending Date .............. 01/04/2024 04:00:00
  Antecedent Dry Days ...... 14.0
  Report Time Step ......... 00:01:00
  Wet Time Step ............ 00:01:00
  Dry Time Step ............ 00:01:00
  Routing Time Step ........ 1.00 sec
  Variable Time Step ....... YES
  Maximum Trials ........... 8
  Number of Threads ........ 1
  Head Tolerance ........... 0.001500 m
  
  
  **************************        Volume         Depth
  Runoff Quantity Continuity     hectare-m            mm
  **************************     ---------       -------
  Total Precipitation ......         0.090         8.920
  Evaporation Loss .........         0.010         0.950
  Infiltration Loss ........         0.050         4.963
  Surface Runoff ...........         0.030         3.009
  Final Storage ............         0.000         0.000
  Continuity Error (%) .....        -0.012
  
  
  **************************        Volume        Volume
  Flow Routing Continuity        hectare-m      10^6 ltr
  **************************     ---------     ---------
  Dry Weather Inflow .......         0.000         0.000
  Wet Weather Inflow .......         0.030         0.305
  Groundwater Inflow .......         0.000         0.000
  RDII Inflow ..............         0.000         0.000
  External Inflow ..........         0.000         0.000
  External Outflow .........         0.030         0.305
  Flooding Loss ............         0.000         0.000
  Evaporation Loss .........         0.000         0.000
  Exfiltration Loss ........         0.000         0.000
  Initial Stored Volume ....         0.000         0.000
  Final Stored Volume ......         0.000         0.000
  Continuity Error (%) .....         0.000
  
  
  ***************************
  Time-Step Critical Elements
  ***************************
  None
  
  
  ********************************
  Highest Flow Instability Indexes
  ********************************
  All links are stable.
  
  
  *********************************
  Most Frequent Nonconverging Nodes
  *********************************
  Convergence obtained at all time steps.
  
  
  *************************
  Routing Time Step Summary
  *************************
  Minimum Time Step           :     0.50 sec
  Average Time Step           :     1.00 sec
  Maximum Time Step           :     1.00 sec
  % of Time in Steady State   :     0.00
  Average Iterations per Step :     2.00
  % of Steps Not Converging   :     0.00
  Time Step Frequencies       :
      1.000 -  0.871 sec      :   100.00 %
      0.871 -  0.758 sec      :     0.00 %
      0.758 -  0.660 sec      :     0.00 %
      0.660 -  0.574 sec      :     0.00 %
      0.574 -  0.500 sec      :     0.00 %
  
  
  ***************************
  Subcatchment Runoff Summary
  ***************************
  
  ------------------------------------------------------------------------------------------------------------------------------
                            Total      Total      Total      Total     Imperv       Perv      Total       Total     Peak  Runoff
                           Precip      Runon       Evap      Infil     Runoff     Runoff     Runoff      Runoff   Runoff   Coeff
  Subcatchment                 mm         mm         mm         mm         mm         mm         mm    10^6 ltr      CMS
  ------------------------------------------------------------------------------------------------------------------------------
  EZG_368                    8.92       0.00       0.94       4.99       3.52       0.00       2.99        0.01     0.00   0.335
  EZG_392                    8.92       0.00       0.94       4.99       3.52       0.00       2.99        0.01     0.00   0.335
  EZG_352                    8.92       0.00       0.95       4.99       3.51       0.00       2.99        0.02     0.01   0.335
  EZG_372                    8.92       0.00       0.93       4.99       3.53       0.00       3.00        0.00     0.00   0.336
  EZG_416                    8.92       0.00       0.94       4.99       3.52       0.00       2.99        0.01     0.00   0.336
  EZG_388                    8.92       0.00       0.95       4.99       3.52       0.00       2.99        0.01     0.01   0.335
  EZG_394                    8.92       0.00       0.94       4.99       3.52       0.00       2.99        0.01     0.00   0.336
  EZG_400                    8.92       0.00       0.94       4.99       3.52       0.00       2.99        0.01     0.00   0.336
  EZG_390                    8.92       0.00       0.94       4.99       3.52       0.00       2.99        0.01     0.00   0.335
  EZG_350                    8.92       0.00       0.95       4.99       3.52       0.00       2.99        0.01     0.01   0.335
  EZG_370                    8.92       0.00       0.94       4.99       3.52       0.00       2.99        0.01     0.00   0.335
  EZG_398                    8.92       0.00       0.93       4.99       3.53       0.00       3.00        0.00     0.00   0.337
  EZG_382                    8.92       0.00       0.93       4.99       3.53       0.00       3.00        0.00     0.00   0.337
  EZG_374                    8.92       0.00       1.14       4.20       4.22       0.00       3.58        0.01     0.01   0.402
  EZG_412                    8.92       0.00       0.92       4.99       3.54       0.00       3.01        0.00     0.00   0.337
  EZG_344                    8.92       0.00       0.94       4.99       3.52       0.00       2.99        0.01     0.00   0.336
  EZG_376                    8.92       0.00       0.94       4.99       3.53       0.00       3.00        0.01     0.00   0.336
  EZG_356                    8.92       0.00       0.95       4.99       3.51       0.00       2.98        0.02     0.01   0.335
  EZG_386                    8.92       0.00       0.95       4.99       3.51       0.00       2.98        0.02     0.01   0.334
  EZG_380                    8.92       0.00       0.94       4.99       3.52       0.00       2.99        0.01     0.00   0.335
  EZG_378                    8.92       0.00       0.94       4.99       3.52       0.00       2.99        0.01     0.00   0.335
  EZG_414                    8.92       0.00       0.93       4.99       3.53       0.00       3.00        0.00     0.00   0.337
  EZG_402                    8.92       0.00       0.94       4.99       3.52       0.00       2.99        0.01     0.00   0.335
  EZG_358                    8.92       0.00       0.95       4.99       3.51       0.00       2.98        0.02     0.01   0.335
  EZG_364                    8.92       0.00       0.95       4.99       3.51       0.00       2.98        0.02     0.01   0.335
  EZG_410                    8.92       0.00       0.94       4.99       3.53       0.00       3.00        0.01     0.00   0.336
  EZG_366                    8.92       0.00       0.94       4.99       3.52       0.00       3.00        0.01     0.00   0.336
  EZG_18259                  8.92       0.00       0.94       4.99       3.52       0.00       3.00        0.01     0.00   0.336
  EZG_18258                  8.92       0.00       0.92       4.99       3.54       0.00       3.01        0.00     0.00   0.337
  EZG_346                    8.92       0.00       0.92       5.07       3.45       0.00       2.93        0.01     0.00   0.329
  EZG_348                    8.92       0.00       0.92       5.07       3.45       0.00       2.94        0.01     0.00   0.329
  
  
  ******************
  Node Depth Summary
  ******************
  
  ---------------------------------------------------------------------------------
                                 Average  Maximum  Maximum  Time of Max    Reported
                                   Depth    Depth      HGL   Occurrence   Max Depth
  Node                 Type       Meters   Meters   Meters  days hr:min      Meters
  ---------------------------------------------------------------------------------
  R0019466             JUNCTION     0.00     0.08    69.53     0  03:55        0.08
  R0019468             JUNCTION     0.00     0.09    69.40     0  03:55        0.09
  R0019831             JUNCTION     0.00     0.05    69.22     0  03:51        0.05
  R0019825             JUNCTION     0.00     0.07    68.91     0  03:52        0.07
  R0019843             JUNCTION     0.00     0.13    67.76     0  03:57        0.13
  R0019368             JUNCTION     0.00     0.19    66.98     0  03:57        0.19
  R0019369             JUNCTION     0.00     0.14    66.73     0  03:58        0.14
  R0019370             JUNCTION     0.00     0.12    66.02     0  03:58        0.12
  R0019345             JUNCTION     0.00     0.09    69.99     0  03:55        0.09
  R0019346             JUNCTION     0.00     0.07    69.87     0  03:54        0.07
  R0043600             JUNCTION     0.00     0.09    69.76     0  03:56        0.09
  R0019203             JUNCTION     0.00     0.10    69.64     0  03:56        0.10
  R0043594             JUNCTION     0.00     0.07    69.80     0  03:55        0.07
  R0021458             JUNCTION     0.00     0.10    69.75     0  03:55        0.10
  R0019202             JUNCTION     0.00     0.09    69.67     0  03:56        0.09
  R0019373             JUNCTION     0.00     0.05    69.72     0  03:53        0.05
  R0019254             JUNCTION     0.00     0.07    70.11     0  03:54        0.07
  R0019716             JUNCTION     0.00     0.12    69.13     0  03:56        0.12
  R0019946             JUNCTION     0.00     0.20    68.82     0  03:57        0.20
  R0013935             JUNCTION     0.00     0.04    68.87     0  03:51        0.04
  R0019939             JUNCTION     0.00     0.07    68.64     0  03:52        0.07
  R0019944             JUNCTION     0.00     0.11    68.39     0  03:57        0.11
  R0043703             JUNCTION     0.00     0.13    68.73     0  03:57        0.13
  R0019945             JUNCTION     0.00     0.14    68.54     0  03:57        0.14
  R0039621             JUNCTION     0.00     0.00    69.57     0  00:00        0.00
  R0019838             JUNCTION     0.00     0.08    69.54     0  03:55        0.08
  R0039606             JUNCTION     0.00     0.09    69.68     0  03:56        0.09
  R0019204             JUNCTION     0.00     0.00    69.91     0  00:00        0.00
  R0019205             JUNCTION     0.00     0.00    69.62     0  00:00        0.00
  R0019849             JUNCTION     0.00     0.08    68.60     0  03:53        0.08
  R0019371             JUNCTION     0.00     0.00    70.41     0  00:00        0.00
  R0019718             JUNCTION     0.00     0.16    69.58     0  03:57        0.16
  R0021442             JUNCTION     0.00     0.09    70.14     0  03:55        0.09
  R0019247             JUNCTION     0.00     0.10    69.98     0  03:55        0.10
  R0019719             JUNCTION     0.00     0.08    69.76     0  03:55        0.08
  R0019767             JUNCTION     0.00     0.13    64.86     0  03:58        0.13
  R0019768             JUNCTION     0.00     0.11    63.88     0  03:58        0.11
  R0021453             JUNCTION     0.00     0.03    69.98     0  03:50        0.03
  R0019839             JUNCTION     0.00     0.07    69.46     0  03:55        0.07
  R0019717             JUNCTION     0.00     0.12    69.46     0  03:56        0.12
  R0019252             JUNCTION     0.00     0.06    70.25     0  03:52        0.06
  R0019721             JUNCTION     0.00     0.06    69.93     0  03:53        0.06
  R0019942             JUNCTION     0.00     0.06    68.71     0  03:53        0.06
  R0019206             JUNCTION     0.00     0.00    69.07     0  00:00        0.00
  R0019840             JUNCTION     0.00     0.06    69.03     0  03:55        0.06
  R0043702             JUNCTION     0.00     0.09    68.79     0  03:55        0.09
  R0019723             JUNCTION     0.00     0.05    70.13     0  03:51        0.05
  R0019724             JUNCTION     0.00     0.03    70.19     0  03:50        0.03
  R0021433             JUNCTION     0.00     0.05    70.44     0  03:52        0.05
  R0021435             JUNCTION     0.00     0.07    70.25     0  03:53        0.07
  R0019769             OUTFALL      0.00     0.11    63.49     0  03:58        0.11
  
  
  *******************
  Node Inflow Summary
  *******************
  
  -------------------------------------------------------------------------------------------------
                                  Maximum  Maximum                  Lateral       Total        Flow
                                  Lateral    Total  Time of Max      Inflow      Inflow     Balance
                                   Inflow   Inflow   Occurrence      Volume      Volume       Error
  Node                 Type           CMS      CMS  days hr:min    10^6 ltr    10^6 ltr     Percent
  -------------------------------------------------------------------------------------------------
  R0019466             JUNCTION     0.005    0.009     0  03:55      0.0124      0.0231      -0.030
  R0019468             JUNCTION     0.003    0.012     0  03:54     0.00717      0.0303       0.031
  R0019831             JUNCTION     0.004    0.004     0  03:50     0.00969     0.00969      -0.061
  R0019825             JUNCTION     0.004    0.008     0  03:50     0.00972      0.0194      -0.001
  R0019843             JUNCTION     0.000    0.114     0  03:57           0       0.305      -0.012
  R0019368             JUNCTION     0.000    0.114     0  03:57           0       0.305       0.001
  R0019369             JUNCTION     0.000    0.114     0  03:57           0       0.305       0.001
  R0019370             JUNCTION     0.000    0.114     0  03:58           0       0.305       0.003
  R0019345             JUNCTION     0.000    0.007     0  03:54           0       0.019       0.098
  R0019346             JUNCTION     0.001    0.013     0  03:54      0.0012      0.0318       0.033
  R0043600             JUNCTION     0.000    0.014     0  03:55           0      0.0368       0.108
  R0019203             JUNCTION     0.001    0.032     0  03:56     0.00266      0.0824      -0.027
  R0043594             JUNCTION     0.007    0.010     0  03:55      0.0176      0.0252      -0.145
  R0021458             JUNCTION     0.005    0.015     0  03:55      0.0137       0.039      -0.039
  R0019202             JUNCTION     0.002    0.016     0  03:56     0.00406       0.043      -0.013
  R0019373             JUNCTION     0.004    0.004     0  03:50      0.0107      0.0107      -0.028
  R0019254             JUNCTION     0.004    0.007     0  03:51     0.00872       0.019      -0.067
  R0019716             JUNCTION     0.005    0.064     0  03:56      0.0136        0.17      -0.030
  R0019946             JUNCTION     0.000    0.064     0  03:56           0        0.17       0.035
  R0013935             JUNCTION     0.003    0.003     0  03:50     0.00831     0.00831      -0.047
  R0019939             JUNCTION     0.001    0.005     0  03:50     0.00297      0.0113      -0.028
  R0019944             JUNCTION     0.003    0.081     0  03:57     0.00771       0.217       0.001
  R0043703             JUNCTION     0.004    0.067     0  03:57     0.00947       0.179       0.002
  R0019945             JUNCTION     0.000    0.079     0  03:57           0        0.21       0.002
  R0039621             JUNCTION     0.000    0.000     0  00:00           0           0       0.000 ltr
  R0019838             JUNCTION     0.007    0.007     0  03:55      0.0191      0.0191      -0.002
  R0039606             JUNCTION     0.000    0.015     0  03:55           0       0.039       0.108
  R0019204             JUNCTION     0.000    0.000     0  00:00           0           0       0.000 ltr
  R0019205             JUNCTION     0.000    0.000     0  00:00           0           0       0.000 ltr
  R0019849             JUNCTION     0.000    0.012     0  03:53           0      0.0307      -0.004
  R0019371             JUNCTION     0.000    0.000     0  00:00           0           0       0.000 ltr
  R0019718             JUNCTION     0.005    0.036     0  03:55      0.0116      0.0941       0.024
  R0021442             JUNCTION     0.005    0.012     0  03:55      0.0136      0.0308      -0.019
  R0019247             JUNCTION     0.003    0.014     0  03:55     0.00598      0.0368      -0.083
  R0019719             JUNCTION     0.003    0.015     0  03:54     0.00629       0.038      -0.004
  R0019767             JUNCTION     0.000    0.114     0  03:58           0       0.305      -0.000
  R0019768             JUNCTION     0.000    0.114     0  03:58           0       0.305       0.006
  R0021453             JUNCTION     0.003    0.003     0  03:50     0.00757     0.00757       0.185
  R0019839             JUNCTION     0.007    0.014     0  03:55      0.0189       0.038      -0.019
  R0019717             JUNCTION     0.009    0.059     0  03:56      0.0238       0.156      -0.000
  R0019252             JUNCTION     0.004    0.004     0  03:50      0.0103      0.0103      -0.054
  R0019721             JUNCTION     0.001    0.005     0  03:50     0.00261      0.0116      -0.019
  R0019942             JUNCTION     0.000    0.008     0  03:53           0      0.0194       0.029
  R0019206             JUNCTION     0.000    0.000     0  00:00           0           0       0.000 ltr
  R0019840             JUNCTION     0.000    0.026     0  03:55           0      0.0683       0.011
  R0043702             JUNCTION     0.007    0.033     0  03:55      0.0189      0.0872      -0.002
  R0019723             JUNCTION     0.003    0.004     0  03:50     0.00712     0.00896      -0.072
  R0019724             JUNCTION     0.001    0.001     0  03:50     0.00184     0.00184      -0.067
  R0021433             JUNCTION     0.004    0.004     0  03:50      0.0107      0.0107      -0.059
  R0021435             JUNCTION     0.003    0.007     0  03:51     0.00653      0.0172       0.020
  R0019769             OUTFALL      0.000    0.114     0  03:58           0       0.305       0.000
  
  
  **********************
  Node Surcharge Summary
  **********************
  
  No nodes were surcharged.
  
  
  *********************
  Node Flooding Summary
  *********************
  
  No nodes were flooded.
  
  
  ***********************
  Outfall Loading Summary
  ***********************
  
  -----------------------------------------------------------
                         Flow       Avg       Max       Total
                         Freq      Flow      Flow      Volume
  Outfall Node           Pcnt       CMS       CMS    10^6 ltr
  -----------------------------------------------------------
  R0019769               6.20     0.018     0.114       0.305
  -----------------------------------------------------------
  System                 6.20     0.018     0.114       0.305
  
  
  ********************
  Link Flow Summary
  ********************
  
  -----------------------------------------------------------------------------
                                 Maximum  Time of Max   Maximum    Max/    Max/
                                  |Flow|   Occurrence   |Veloc|    Full    Full
  Link                 Type          CMS  days hr:min     m/sec    Flow   Depth
  -----------------------------------------------------------------------------
  H0014431             CONDUIT     0.009     0  03:55      0.55    0.17    0.28
  H0014433             CONDUIT     0.004     0  03:51      0.39    0.05    0.20
  H0014352             CONDUIT     0.114     0  03:57      1.48    0.05    0.18
  H0014373             CONDUIT     0.114     0  03:58      1.94    0.05    0.15
  H0017981             CONDUIT     0.007     0  03:55      0.53    0.21    0.25
  H0017755             CONDUIT     0.014     0  03:56      0.71    0.12    0.22
  H0017791             CONDUIT     0.010     0  03:55      0.31    0.01    0.10
  H0017357             CONDUIT     0.000     0  00:00      0.00    0.00    0.08
  H0018216             CONDUIT     0.007     0  03:54      0.48    0.14    0.27
  H0016792             CONDUIT     0.064     0  03:56      0.84    0.04    0.18
  H0019507             CONDUIT     0.003     0  03:51      0.38    0.05    0.18
  H0019998             CONDUIT     0.081     0  03:57      1.58    0.03    0.14
  H0019576             CONDUIT     0.067     0  03:57      1.15    0.05    0.15
  H0020087             CONDUIT     0.000     0  00:00      0.00    0.00    0.08
  H0020211             CONDUIT     0.064     0  03:57      0.80    0.16    0.18
  H0018982             CONDUIT     0.015     0  03:55      0.43    0.02    0.10
  H0018753             CONDUIT     0.004     0  03:53      0.37    0.06    0.22
  H0018845             CONDUIT     0.000     0  00:00      0.00    0.00    0.00
  H0018863             CONDUIT     0.005     0  03:52      0.36    0.11    0.24
  H0019156             CONDUIT     0.000     0  00:00      0.00    0.00    0.00
  H0018929             CONDUIT     0.031     0  03:56      0.57    0.03    0.14
  H0018440             CONDUIT     0.012     0  03:55      0.61    0.21    0.32
  H0018456             CONDUIT     0.013     0  03:54      0.71    0.08    0.20
  H0018968             CONDUIT     0.114     0  03:58      2.21    0.04    0.14
  H0022036             CONDUIT     0.003     0  03:50      0.44    0.00    0.04
  H0021806             CONDUIT     0.014     0  03:55      0.63    0.13    0.24
  H0022111             CONDUIT     0.007     0  03:55      0.39    0.05    0.15
  H0021440             CONDUIT     0.059     0  03:56      1.18    0.04    0.13
  H0021704             CONDUIT     0.036     0  03:57      0.62    0.07    0.14
  H0020521             CONDUIT     0.004     0  03:52      0.35    0.08    0.22
  H0020755             CONDUIT     0.005     0  03:53      0.34    0.05    0.17
  H0020530             CONDUIT     0.114     0  03:57      1.41    0.10    0.18
  H0020618             CONDUIT     0.079     0  03:57      1.50    0.05    0.14
  H0021163             CONDUIT     0.008     0  03:53      0.68    0.13    0.22
  H0020497             CONDUIT     0.000     0  00:00      0.00    0.00    0.22
  H0024325             CONDUIT     0.014     0  03:55      0.90    0.04    0.14
  H0023585             CONDUIT     0.033     0  03:55      1.31    0.08    0.19
  H0024098             CONDUIT     0.012     0  03:53      0.71    0.14    0.35
  H0024235             CONDUIT     0.015     0  03:55      0.71    0.06    0.16
  H0024282             CONDUIT     0.000     0  00:00      0.00    0.00    0.00
  H0024308             CONDUIT     0.114     0  03:58      2.48    0.03    0.12
  H0024498             CONDUIT     0.012     0  03:55      0.72    0.18    0.28
  H0026990             CONDUIT     0.004     0  03:51      0.37    0.03    0.13
  H0041650             CONDUIT     0.016     0  03:56      0.46    0.02    0.10
  H0041011             CONDUIT     0.008     0  03:53      0.66    0.08    0.22
  H0045103             CONDUIT     0.015     0  03:56      0.48    0.02    0.10
  H0045104             CONDUIT     0.114     0  03:58      2.07    0.04    0.14
  H0045105             CONDUIT     0.001     0  03:50      0.18    0.01    0.12
  H0045106             CONDUIT     0.026     0  03:55      1.31    0.03    0.16
  H0045107             CONDUIT     0.004     0  03:52      0.40    0.07    0.21
  H0045108             CONDUIT     0.007     0  03:53      0.43    0.12    0.27
  
  
  ***************************
  Flow Classification Summary
  ***************************
  
  -------------------------------------------------------------------------------------
                      Adjusted    ---------- Fraction of Time in Flow Class ---------- 
                       /Actual         Up    Down  Sub   Sup   Up    Down  Norm  Inlet 
  Conduit               Length    Dry  Dry   Dry   Crit  Crit  Crit  Crit  Ltd   Ctrl  
  -------------------------------------------------------------------------------------
  H0014431                1.00   0.05  0.00  0.00  0.95  0.00  0.00  0.00  0.95  0.00
  H0014433                1.00   0.05  0.00  0.00  0.95  0.00  0.00  0.00  0.95  0.00
  H0014352                1.00   0.05  0.00  0.00  0.91  0.04  0.00  0.00  0.95  0.00
  H0014373                1.00   0.05  0.00  0.00  0.90  0.06  0.00  0.00  0.88  0.00
  H0017981                1.00   0.05  0.00  0.00  0.00  0.00  0.00  0.95  0.00  0.00
  H0017755                1.00   0.05  0.00  0.00  0.00  0.00  0.00  0.95  0.00  0.00
  H0017791                1.00   0.05  0.00  0.00  0.95  0.00  0.00  0.00  0.95  0.00
  H0017357                1.00   0.05  0.95  0.00  0.00  0.00  0.00  0.00  0.00  0.00
  H0018216                1.00   0.05  0.89  0.00  0.06  0.00  0.00  0.00  0.95  0.00
  H0016792                1.00   0.05  0.88  0.00  0.07  0.00  0.00  0.00  0.95  0.00
  H0019507                1.00   0.05  0.00  0.00  0.95  0.00  0.00  0.00  0.95  0.00
  H0019998                1.00   0.05  0.00  0.00  0.90  0.06  0.00  0.00  0.07  0.00
  H0019576                1.00   0.05  0.00  0.00  0.92  0.03  0.00  0.00  0.07  0.00
  H0020087                1.00   0.05  0.95  0.00  0.00  0.00  0.00  0.00  0.00  0.00
  H0020211                1.00   0.05  0.00  0.00  0.95  0.00  0.00  0.00  0.88  0.00
  H0018982                1.00   0.05  0.00  0.00  0.95  0.00  0.00  0.00  0.90  0.00
  H0018753                1.00   0.05  0.00  0.00  0.95  0.00  0.00  0.00  0.95  0.00
  H0018845                1.00   1.00  0.00  0.00  0.00  0.00  0.00  0.00  0.00  0.00
  H0018863                1.00   0.05  0.00  0.00  0.95  0.00  0.00  0.00  0.95  0.00
  H0019156                1.00   1.00  0.00  0.00  0.00  0.00  0.00  0.00  0.00  0.00
  H0018929                1.00   0.05  0.89  0.00  0.07  0.00  0.00  0.00  0.95  0.00
  H0018440                1.00   0.05  0.00  0.00  0.95  0.00  0.00  0.00  0.95  0.00
  H0018456                1.00   0.05  0.00  0.00  0.95  0.00  0.00  0.00  0.95  0.00
  H0018968                1.00   0.05  0.88  0.00  0.02  0.06  0.00  0.00  0.90  0.00
  H0022036                1.00   0.05  0.00  0.00  0.01  0.01  0.00  0.94  0.01  0.00
  H0021806                1.00   0.05  0.89  0.00  0.06  0.00  0.00  0.00  0.93  0.00
  H0022111                1.00   0.05  0.00  0.00  0.95  0.00  0.00  0.00  0.00  0.00
  H0021440                1.00   0.05  0.00  0.00  0.91  0.04  0.00  0.00  0.02  0.00
  H0021704                1.00   0.05  0.00  0.00  0.00  0.00  0.00  0.95  0.00  0.00
  H0020521                1.00   0.05  0.00  0.00  0.95  0.00  0.00  0.00  0.95  0.00
  H0020755                1.00   0.05  0.90  0.00  0.06  0.00  0.00  0.00  0.95  0.00
  H0020530                1.00   0.05  0.00  0.00  0.92  0.04  0.00  0.00  0.00  0.00
  H0020618                1.00   0.05  0.00  0.00  0.91  0.05  0.00  0.00  0.89  0.00
  H0021163                1.00   0.05  0.00  0.00  0.95  0.01  0.00  0.00  0.90  0.00
  H0020497                1.20   0.05  0.95  0.00  0.00  0.00  0.00  0.00  0.00  0.00
  H0024325                1.00   0.05  0.00  0.00  0.91  0.04  0.00  0.00  0.90  0.00
  H0023585                1.00   0.05  0.00  0.00  0.00  0.00  0.00  0.95  0.00  0.00
  H0024098                1.00   0.05  0.89  0.00  0.06  0.00  0.00  0.00  0.95  0.00
  H0024235                1.00   0.05  0.00  0.00  0.00  0.00  0.00  0.95  0.00  0.00
  H0024282                1.00   1.00  0.00  0.00  0.00  0.00  0.00  0.00  0.00  0.00
  H0024308                1.00   0.05  0.00  0.00  0.88  0.07  0.00  0.00  0.02  0.00
  H0024498                1.00   0.05  0.00  0.00  0.00  0.00  0.00  0.95  0.00  0.00
  H0026990                1.00   0.05  0.00  0.00  0.95  0.00  0.00  0.00  0.95  0.00
  H0041650                1.00   0.93  0.01  0.00  0.06  0.00  0.00  0.00  0.95  0.00
  H0041011                1.00   0.05  0.00  0.00  0.95  0.00  0.00  0.00  0.95  0.00
  H0045103                1.00   0.05  0.00  0.00  0.95  0.00  0.00  0.00  0.92  0.00
  H0045104                1.00   0.05  0.00  0.00  0.89  0.06  0.00  0.00  0.07  0.00
  H0045105                1.00   0.05  0.00  0.00  0.95  0.00  0.00  0.00  0.95  0.00
  H0045106                1.00   0.05  0.89  0.00  0.02  0.04  0.00  0.00  0.95  0.00
  H0045107                1.00   0.05  0.00  0.00  0.95  0.00  0.00  0.00  0.95  0.00
  H0045108                1.00   0.05  0.00  0.00  0.95  0.00  0.00  0.00  0.95  0.00
  
  
  *************************
  Conduit Surcharge Summary
  *************************
  
  No conduits were surcharged.
  

  Analysis begun on:  Fri Mar 22 15:55:36 2024
  Analysis ended on:  Fri Mar 22 15:55:48 2024
  Total elapsed time: 00:00:12