
  EPA STORM WATER MANAGEMENT MODEL - VERSION 5.2 (Build 5.2.4)
  PYSWMM TOOLKIT API - VERSION v1.0 (2023-11-27)
  ------------------------------------------------------------

  Gievenbeck_2018-04-12 19 15 00_hN4 23 
  
  ****************
  Analysis Options
  ****************
  Flow Units ............... CMS
  Process Models:
    Rainfall/Runoff ........ YES
    RDII ................... NO
    Snowmelt ............... NO
    Groundwater ............ NO
    Flow Routing ........... YES
    Ponding Allowed ........ NO
    Water Quality .......... NO
  Infiltration Method ...... HORTON
  Flow Routing Method ...... DYNWAVE
  Surcharge Method ......... SLOT
  Starting Date ............ 01/01/2024 00:00:00
  Ending Date .............. 01/04/2024 04:00:00
  Antecedent Dry Days ...... 14.0
  Report Time Step ......... 00:01:00
  Wet Time Step ............ 00:01:00
  Dry Time Step ............ 00:01:00
  Routing Time Step ........ 1.00 sec
  Variable Time Step ....... YES
  Maximum Trials ........... 8
  Number of Threads ........ 1
  Head Tolerance ........... 0.001500 m
  
  
  **************************        Volume         Depth
  Runoff Quantity Continuity     hectare-m            mm
  **************************     ---------       -------
  Total Precipitation ......         0.043         4.230
  Evaporation Loss .........         0.010         0.954
  Infiltration Loss ........         0.023         2.279
  Surface Runoff ...........         0.010         1.004
  Final Storage ............         0.000         0.000
  Continuity Error (%) .....        -0.156
  
  
  **************************        Volume        Volume
  Flow Routing Continuity        hectare-m      10^6 ltr
  **************************     ---------     ---------
  Dry Weather Inflow .......         0.000         0.000
  Wet Weather Inflow .......         0.010         0.102
  Groundwater Inflow .......         0.000         0.000
  RDII Inflow ..............         0.000         0.000
  External Inflow ..........         0.000         0.000
  External Outflow .........         0.010         0.102
  Flooding Loss ............         0.000         0.000
  Evaporation Loss .........         0.000         0.000
  Exfiltration Loss ........         0.000         0.000
  Initial Stored Volume ....         0.000         0.000
  Final Stored Volume ......         0.000         0.000
  Continuity Error (%) .....        -0.129
  
  
  *************************
  Highest Continuity Errors
  *************************
  Node R0043594 (-1.16%)
  
  
  ***************************
  Time-Step Critical Elements
  ***************************
  None
  
  
  ********************************
  Highest Flow Instability Indexes
  ********************************
  All links are stable.
  
  
  *********************************
  Most Frequent Nonconverging Nodes
  *********************************
  Convergence obtained at all time steps.
  
  
  *************************
  Routing Time Step Summary
  *************************
  Minimum Time Step           :     0.50 sec
  Average Time Step           :     1.00 sec
  Maximum Time Step           :     1.00 sec
  % of Time in Steady State   :     0.00
  Average Iterations per Step :     2.00
  % of Steps Not Converging   :     0.00
  Time Step Frequencies       :
      1.000 -  0.871 sec      :   100.00 %
      0.871 -  0.758 sec      :     0.00 %
      0.758 -  0.660 sec      :     0.00 %
      0.660 -  0.574 sec      :     0.00 %
      0.574 -  0.500 sec      :     0.00 %
  
  
  ***************************
  Subcatchment Runoff Summary
  ***************************
  
  ------------------------------------------------------------------------------------------------------------------------------
                            Total      Total      Total      Total     Imperv       Perv      Total       Total     Peak  Runoff
                           Precip      Runon       Evap      Infil     Runoff     Runoff     Runoff      Runoff   Runoff   Coeff
  Subcatchment                 mm         mm         mm         mm         mm         mm         mm    10^6 ltr      CMS
  ------------------------------------------------------------------------------------------------------------------------------
  EZG_368                    4.23       0.00       0.95       2.29       1.17       0.00       1.00        0.00     0.01   0.236
  EZG_392                    4.23       0.00       0.94       2.29       1.18       0.00       1.00        0.00     0.01   0.237
  EZG_352                    4.23       0.00       0.95       2.29       1.17       0.00       0.99        0.01     0.01   0.234
  EZG_372                    4.23       0.00       0.93       2.29       1.19       0.00       1.01        0.00     0.00   0.239
  EZG_416                    4.23       0.00       0.94       2.29       1.18       0.00       1.00        0.00     0.01   0.237
  EZG_388                    4.23       0.00       0.95       2.29       1.17       0.00       1.00        0.00     0.01   0.235
  EZG_394                    4.23       0.00       0.94       2.29       1.18       0.00       1.00        0.00     0.01   0.237
  EZG_400                    4.23       0.00       0.94       2.29       1.18       0.00       1.00        0.00     0.01   0.237
  EZG_390                    4.23       0.00       0.94       2.29       1.18       0.00       1.00        0.00     0.01   0.237
  EZG_350                    4.23       0.00       0.95       2.29       1.17       0.00       1.00        0.00     0.01   0.235
  EZG_370                    4.23       0.00       0.95       2.29       1.18       0.00       1.00        0.00     0.01   0.236
  EZG_398                    4.23       0.00       0.93       2.29       1.20       0.00       1.02        0.00     0.00   0.240
  EZG_382                    4.23       0.00       0.93       2.29       1.20       0.00       1.02        0.00     0.00   0.241
  EZG_374                    4.23       0.00       1.14       1.90       1.40       0.00       1.19        0.00     0.01   0.282
  EZG_412                    4.23       0.00       0.92       2.30       1.21       0.00       1.03        0.00     0.00   0.243
  EZG_344                    4.23       0.00       0.94       2.29       1.18       0.00       1.00        0.00     0.01   0.237
  EZG_376                    4.23       0.00       0.94       2.29       1.19       0.00       1.01        0.00     0.00   0.238
  EZG_356                    4.23       0.00       0.95       2.29       1.17       0.00       0.99        0.01     0.01   0.234
  EZG_386                    4.23       0.00       0.96       2.29       1.16       0.00       0.99        0.01     0.01   0.233
  EZG_380                    4.23       0.00       0.95       2.29       1.17       0.00       1.00        0.00     0.01   0.236
  EZG_378                    4.23       0.00       0.95       2.29       1.18       0.00       1.00        0.00     0.01   0.236
  EZG_414                    4.23       0.00       0.93       2.29       1.20       0.00       1.02        0.00     0.00   0.241
  EZG_402                    4.23       0.00       0.94       2.29       1.18       0.00       1.00        0.00     0.01   0.237
  EZG_358                    4.23       0.00       0.95       2.29       1.17       0.00       0.99        0.01     0.01   0.234
  EZG_364                    4.23       0.00       0.95       2.29       1.17       0.00       0.99        0.01     0.01   0.234
  EZG_410                    4.23       0.00       0.94       2.29       1.18       0.00       1.01        0.00     0.00   0.238
  EZG_366                    4.23       0.00       0.94       2.29       1.18       0.00       1.01        0.00     0.01   0.238
  EZG_18259                  4.23       0.00       0.94       2.29       1.18       0.00       1.01        0.00     0.01   0.238
  EZG_18258                  4.23       0.00       0.93       2.30       1.20       0.00       1.02        0.00     0.00   0.242
  EZG_346                    4.23       0.00       0.93       2.33       1.15       0.00       0.98        0.00     0.01   0.232
  EZG_348                    4.23       0.00       0.92       2.33       1.16       0.00       0.99        0.00     0.01   0.233
  
  
  ******************
  Node Depth Summary
  ******************
  
  ---------------------------------------------------------------------------------
                                 Average  Maximum  Maximum  Time of Max    Reported
                                   Depth    Depth      HGL   Occurrence   Max Depth
  Node                 Type       Meters   Meters   Meters  days hr:min      Meters
  ---------------------------------------------------------------------------------
  R0019466             JUNCTION     0.00     0.10    69.55     0  02:26        0.10
  R0019468             JUNCTION     0.00     0.10    69.41     0  02:27        0.10
  R0019831             JUNCTION     0.00     0.06    69.23     0  02:25        0.06
  R0019825             JUNCTION     0.00     0.09    68.93     0  02:26        0.09
  R0019843             JUNCTION     0.00     0.13    67.76     0  02:31        0.13
  R0019368             JUNCTION     0.00     0.18    66.97     0  02:32        0.18
  R0019369             JUNCTION     0.00     0.14    66.73     0  02:32        0.14
  R0019370             JUNCTION     0.00     0.12    66.02     0  02:32        0.12
  R0019345             JUNCTION     0.00     0.10    70.00     0  02:27        0.10
  R0019346             JUNCTION     0.00     0.09    69.89     0  02:27        0.09
  R0043600             JUNCTION     0.00     0.10    69.77     0  02:29        0.10
  R0019203             JUNCTION     0.00     0.11    69.65     0  02:29        0.11
  R0043594             JUNCTION     0.00     0.08    69.81     0  02:26        0.08
  R0021458             JUNCTION     0.00     0.11    69.76     0  02:28        0.11
  R0019202             JUNCTION     0.00     0.09    69.67     0  02:29        0.09
  R0019373             JUNCTION     0.00     0.06    69.73     0  02:25        0.06
  R0019254             JUNCTION     0.00     0.09    70.13     0  02:26        0.09
  R0019716             JUNCTION     0.00     0.12    69.13     0  02:31        0.12
  R0019946             JUNCTION     0.00     0.20    68.82     0  02:31        0.20
  R0013935             JUNCTION     0.00     0.06    68.89     0  02:25        0.05
  R0019939             JUNCTION     0.00     0.08    68.65     0  02:26        0.08
  R0019944             JUNCTION     0.00     0.11    68.39     0  02:32        0.11
  R0043703             JUNCTION     0.00     0.13    68.73     0  02:31        0.13
  R0019945             JUNCTION     0.00     0.13    68.53     0  02:32        0.13
  R0039621             JUNCTION     0.00     0.00    69.57     0  00:00        0.00
  R0019838             JUNCTION     0.00     0.08    69.54     0  02:26        0.08
  R0039606             JUNCTION     0.00     0.09    69.68     0  02:29        0.09
  R0019204             JUNCTION     0.00     0.00    69.91     0  00:00        0.00
  R0019205             JUNCTION     0.00     0.00    69.62     0  00:00        0.00
  R0019849             JUNCTION     0.00     0.09    68.61     0  02:27        0.09
  R0019371             JUNCTION     0.00     0.00    70.41     0  00:00        0.00
  R0019718             JUNCTION     0.00     0.16    69.58     0  02:31        0.16
  R0021442             JUNCTION     0.00     0.11    70.16     0  02:27        0.11
  R0019247             JUNCTION     0.00     0.11    69.99     0  02:28        0.11
  R0019719             JUNCTION     0.00     0.09    69.77     0  02:28        0.09
  R0019767             JUNCTION     0.00     0.12    64.85     0  02:33        0.12
  R0019768             JUNCTION     0.00     0.11    63.88     0  02:33        0.11
  R0021453             JUNCTION     0.00     0.04    69.99     0  02:25        0.04
  R0019839             JUNCTION     0.00     0.08    69.47     0  02:26        0.08
  R0019717             JUNCTION     0.00     0.12    69.46     0  02:30        0.12
  R0019252             JUNCTION     0.00     0.07    70.26     0  02:25        0.07
  R0019721             JUNCTION     0.00     0.07    69.94     0  02:26        0.07
  R0019942             JUNCTION     0.00     0.07    68.72     0  02:27        0.07
  R0019206             JUNCTION     0.00     0.00    69.07     0  00:00        0.00
  R0019840             JUNCTION     0.00     0.07    69.04     0  02:27        0.07
  R0043702             JUNCTION     0.00     0.10    68.80     0  02:28        0.10
  R0019723             JUNCTION     0.00     0.06    70.14     0  02:25        0.06
  R0019724             JUNCTION     0.00     0.04    70.20     0  02:25        0.04
  R0021433             JUNCTION     0.00     0.07    70.46     0  02:25        0.06
  R0021435             JUNCTION     0.00     0.08    70.26     0  02:26        0.08
  R0019769             OUTFALL      0.00     0.11    63.49     0  02:33        0.11
  
  
  *******************
  Node Inflow Summary
  *******************
  
  -------------------------------------------------------------------------------------------------
                                  Maximum  Maximum                  Lateral       Total        Flow
                                  Lateral    Total  Time of Max      Inflow      Inflow     Balance
                                   Inflow   Inflow   Occurrence      Volume      Volume       Error
  Node                 Type           CMS      CMS  days hr:min    10^6 ltr    10^6 ltr     Percent
  -------------------------------------------------------------------------------------------------
  R0019466             JUNCTION     0.008    0.013     0  02:25     0.00412     0.00771      -0.148
  R0019468             JUNCTION     0.005    0.016     0  02:26     0.00241      0.0101       0.156
  R0019831             JUNCTION     0.007    0.007     0  02:25     0.00324     0.00324      -0.482
  R0019825             JUNCTION     0.007    0.012     0  02:25     0.00325     0.00651      -0.062
  R0019843             JUNCTION     0.000    0.104     0  02:31           0       0.102      -0.065
  R0019368             JUNCTION     0.000    0.104     0  02:31           0       0.102      -0.001
  R0019369             JUNCTION     0.000    0.104     0  02:32           0       0.102       0.015
  R0019370             JUNCTION     0.000    0.104     0  02:32           0       0.102       0.006
  R0019345             JUNCTION     0.000    0.010     0  02:26           0     0.00639       0.579
  R0019346             JUNCTION     0.001    0.016     0  02:27     0.00041      0.0107       0.172
  R0043600             JUNCTION     0.000    0.017     0  02:28           0      0.0124       0.583
  R0019203             JUNCTION     0.003    0.035     0  02:29      0.0009      0.0275      -0.092
  R0043594             JUNCTION     0.010    0.015     0  02:25     0.00586     0.00836      -1.148
  R0021458             JUNCTION     0.008    0.019     0  02:26     0.00457       0.013      -0.045
  R0019202             JUNCTION     0.004    0.018     0  02:29     0.00137      0.0144      -0.088
  R0019373             JUNCTION     0.007    0.007     0  02:25     0.00358     0.00358      -0.230
  R0019254             JUNCTION     0.006    0.011     0  02:25     0.00292     0.00637      -0.316
  R0019716             JUNCTION     0.008    0.063     0  02:30     0.00454      0.0567      -0.174
  R0019946             JUNCTION     0.000    0.063     0  02:31           0      0.0568       0.238
  R0013935             JUNCTION     0.006    0.006     0  02:25     0.00278     0.00278      -0.515
  R0019939             JUNCTION     0.003    0.008     0  02:25     0.00101      0.0038      -0.095
  R0019944             JUNCTION     0.006    0.076     0  02:32     0.00259      0.0728      -0.009
  R0043703             JUNCTION     0.006    0.065     0  02:31     0.00317      0.0599      -0.052
  R0019945             JUNCTION     0.000    0.075     0  02:31           0      0.0702       0.028
  R0039621             JUNCTION     0.000    0.000     0  00:00           0           0       0.000 ltr
  R0019838             JUNCTION     0.010    0.010     0  02:25     0.00635     0.00635      -0.015
  R0039606             JUNCTION     0.000    0.017     0  02:28           0      0.0131       0.545
  R0019204             JUNCTION     0.000    0.000     0  00:00           0           0       0.000 ltr
  R0019205             JUNCTION     0.000    0.000     0  00:00           0           0       0.000 ltr
  R0019849             JUNCTION     0.000    0.017     0  02:26           0      0.0103       0.076
  R0019371             JUNCTION     0.000    0.000     0  00:00           0           0       0.000 ltr
  R0019718             JUNCTION     0.007    0.039     0  02:29     0.00389      0.0314      -0.387
  R0021442             JUNCTION     0.008    0.016     0  02:26     0.00452      0.0103      -0.139
  R0019247             JUNCTION     0.005    0.018     0  02:27     0.00201      0.0123      -0.434
  R0019719             JUNCTION     0.005    0.019     0  02:27     0.00211      0.0128      -0.042
  R0019767             JUNCTION     0.000    0.103     0  02:32           0       0.102       0.009
  R0019768             JUNCTION     0.000    0.103     0  02:33           0       0.102       0.037
  R0021453             JUNCTION     0.006    0.006     0  02:25     0.00254     0.00254       1.593
  R0019839             JUNCTION     0.010    0.017     0  02:26     0.00627      0.0126      -0.179
  R0019717             JUNCTION     0.012    0.059     0  02:30     0.00788      0.0522       0.072
  R0019252             JUNCTION     0.007    0.007     0  02:25     0.00343     0.00343      -0.507
  R0019721             JUNCTION     0.003    0.008     0  02:25    0.000885     0.00392       0.129
  R0019942             JUNCTION     0.000    0.011     0  02:26           0     0.00651       0.287
  R0019206             JUNCTION     0.000    0.000     0  00:00           0           0       0.000 ltr
  R0019840             JUNCTION     0.000    0.031     0  02:27           0      0.0228       0.106
  R0043702             JUNCTION     0.010    0.038     0  02:27     0.00628       0.029      -0.021
  R0019723             JUNCTION     0.005    0.007     0  02:25     0.00239     0.00302      -0.615
  R0019724             JUNCTION     0.002    0.002     0  02:25    0.000625    0.000625      -0.630
  R0021433             JUNCTION     0.007    0.007     0  02:25     0.00357     0.00357      -0.516
  R0021435             JUNCTION     0.005    0.011     0  02:25     0.00219     0.00578       0.238
  R0019769             OUTFALL      0.000    0.103     0  02:33           0       0.102       0.000
  
  
  **********************
  Node Surcharge Summary
  **********************
  
  No nodes were surcharged.
  
  
  *********************
  Node Flooding Summary
  *********************
  
  No nodes were flooded.
  
  
  ***********************
  Outfall Loading Summary
  ***********************
  
  -----------------------------------------------------------
                         Flow       Avg       Max       Total
                         Freq      Flow      Flow      Volume
  Outfall Node           Pcnt       CMS       CMS    10^6 ltr
  -----------------------------------------------------------
  R0019769               3.63     0.010     0.103       0.102
  -----------------------------------------------------------
  System                 3.63     0.010     0.103       0.102
  
  
  ********************
  Link Flow Summary
  ********************
  
  -----------------------------------------------------------------------------
                                 Maximum  Time of Max   Maximum    Max/    Max/
                                  |Flow|   Occurrence   |Veloc|    Full    Full
  Link                 Type          CMS  days hr:min     m/sec    Flow   Depth
  -----------------------------------------------------------------------------
  H0014431             CONDUIT     0.012     0  02:26      0.64    0.23    0.32
  H0014433             CONDUIT     0.006     0  02:25      0.50    0.08    0.24
  H0014352             CONDUIT     0.104     0  02:31      1.44    0.04    0.17
  H0014373             CONDUIT     0.104     0  02:32      1.89    0.05    0.14
  H0017981             CONDUIT     0.009     0  02:28      0.57    0.27    0.28
  H0017755             CONDUIT     0.016     0  02:29      0.74    0.13    0.23
  H0017791             CONDUIT     0.012     0  02:26      0.39    0.02    0.10
  H0017357             CONDUIT     0.000     0  00:00      0.00    0.00    0.10
  H0018216             CONDUIT     0.010     0  02:26      0.62    0.19    0.30
  H0016792             CONDUIT     0.063     0  02:31      0.86    0.04    0.17
  H0019507             CONDUIT     0.005     0  02:25      0.49    0.07    0.23
  H0019998             CONDUIT     0.076     0  02:32      1.56    0.03    0.13
  H0019576             CONDUIT     0.065     0  02:32      1.14    0.04    0.14
  H0020087             CONDUIT     0.000     0  00:00      0.00    0.00    0.08
  H0020211             CONDUIT     0.062     0  02:31      0.80    0.16    0.18
  H0018982             CONDUIT     0.017     0  02:28      0.47    0.03    0.11
  H0018753             CONDUIT     0.006     0  02:25      0.42    0.08    0.26
  H0018845             CONDUIT     0.000     0  00:00      0.00    0.00    0.00
  H0018863             CONDUIT     0.007     0  02:26      0.45    0.16    0.28
  H0019156             CONDUIT     0.000     0  00:00      0.00    0.00    0.00
  H0018929             CONDUIT     0.035     0  02:29      0.65    0.03    0.15
  H0018440             CONDUIT     0.015     0  02:27      0.69    0.27    0.36
  H0018456             CONDUIT     0.016     0  02:28      0.82    0.10    0.22
  H0018968             CONDUIT     0.103     0  02:33      2.14    0.04    0.13
  H0022036             CONDUIT     0.005     0  02:25      0.47    0.00    0.05
  H0021806             CONDUIT     0.017     0  02:28      0.71    0.15    0.25
  H0022111             CONDUIT     0.008     0  02:26      0.40    0.06    0.16
  H0021440             CONDUIT     0.059     0  02:30      1.19    0.04    0.13
  H0021704             CONDUIT     0.036     0  02:31      0.63    0.07    0.15
  H0020521             CONDUIT     0.006     0  02:25      0.43    0.12    0.26
  H0020755             CONDUIT     0.007     0  02:26      0.42    0.08    0.20
  H0020530             CONDUIT     0.104     0  02:32      1.37    0.09    0.18
  H0020618             CONDUIT     0.075     0  02:32      1.48    0.05    0.13
  H0021163             CONDUIT     0.011     0  02:26      0.76    0.18    0.25
  H0020497             CONDUIT     0.000     0  00:00      0.00    0.00    0.21
  H0024325             CONDUIT     0.016     0  02:27      0.95    0.05    0.14
  H0023585             CONDUIT     0.038     0  02:28      1.36    0.09    0.20
  H0024098             CONDUIT     0.017     0  02:27      0.97    0.20    0.34
  H0024235             CONDUIT     0.018     0  02:29      0.75    0.07    0.18
  H0024282             CONDUIT     0.000     0  00:00      0.00    0.00    0.00
  H0024308             CONDUIT     0.103     0  02:33      2.41    0.03    0.12
  H0024498             CONDUIT     0.014     0  02:27      0.76    0.22    0.31
  H0026990             CONDUIT     0.006     0  02:25      0.51    0.05    0.16
  H0041650             CONDUIT     0.018     0  02:29      0.48    0.02    0.11
  H0041011             CONDUIT     0.010     0  02:27      0.72    0.10    0.26
  H0045103             CONDUIT     0.017     0  02:29      0.50    0.02    0.10
  H0045104             CONDUIT     0.103     0  02:32      2.02    0.04    0.13
  H0045105             CONDUIT     0.002     0  02:25      0.26    0.03    0.16
  H0045106             CONDUIT     0.031     0  02:27      1.40    0.04    0.17
  H0045107             CONDUIT     0.006     0  02:25      0.53    0.10    0.24
  H0045108             CONDUIT     0.009     0  02:26      0.48    0.17    0.32
  
  
  ***************************
  Flow Classification Summary
  ***************************
  
  -------------------------------------------------------------------------------------
                      Adjusted    ---------- Fraction of Time in Flow Class ---------- 
                       /Actual         Up    Down  Sub   Sup   Up    Down  Norm  Inlet 
  Conduit               Length    Dry  Dry   Dry   Crit  Crit  Crit  Crit  Ltd   Ctrl  
  -------------------------------------------------------------------------------------
  H0014431                1.00   0.03  0.00  0.00  0.97  0.00  0.00  0.00  0.97  0.00
  H0014433                1.00   0.03  0.00  0.00  0.97  0.00  0.00  0.00  0.97  0.00
  H0014352                1.00   0.03  0.00  0.00  0.95  0.01  0.00  0.00  0.97  0.00
  H0014373                1.00   0.03  0.00  0.00  0.94  0.03  0.00  0.00  0.92  0.00
  H0017981                1.00   0.03  0.00  0.00  0.00  0.00  0.00  0.97  0.00  0.00
  H0017755                1.00   0.03  0.00  0.00  0.00  0.00  0.00  0.97  0.00  0.00
  H0017791                1.00   0.03  0.00  0.00  0.97  0.00  0.00  0.00  0.97  0.00
  H0017357                1.00   0.03  0.97  0.00  0.00  0.00  0.00  0.00  0.00  0.00
  H0018216                1.00   0.03  0.93  0.00  0.04  0.00  0.00  0.00  0.97  0.00
  H0016792                1.00   0.03  0.92  0.00  0.04  0.00  0.00  0.00  0.97  0.00
  H0019507                1.00   0.03  0.00  0.00  0.97  0.00  0.00  0.00  0.97  0.00
  H0019998                1.00   0.03  0.00  0.00  0.94  0.03  0.00  0.00  0.04  0.00
  H0019576                1.00   0.03  0.00  0.00  0.96  0.01  0.00  0.00  0.04  0.00
  H0020087                1.00   0.03  0.97  0.00  0.00  0.00  0.00  0.00  0.00  0.00
  H0020211                1.00   0.03  0.00  0.00  0.97  0.00  0.00  0.00  0.92  0.00
  H0018982                1.00   0.03  0.00  0.00  0.97  0.00  0.00  0.00  0.95  0.00
  H0018753                1.00   0.03  0.00  0.00  0.97  0.00  0.00  0.00  0.97  0.00
  H0018845                1.00   1.00  0.00  0.00  0.00  0.00  0.00  0.00  0.00  0.00
  H0018863                1.00   0.03  0.00  0.00  0.97  0.00  0.00  0.00  0.97  0.00
  H0019156                1.00   1.00  0.00  0.00  0.00  0.00  0.00  0.00  0.00  0.00
  H0018929                1.00   0.03  0.93  0.00  0.04  0.00  0.00  0.00  0.97  0.00
  H0018440                1.00   0.03  0.00  0.00  0.97  0.00  0.00  0.00  0.97  0.00
  H0018456                1.00   0.03  0.00  0.00  0.97  0.00  0.00  0.00  0.97  0.00
  H0018968                1.00   0.03  0.00  0.00  0.93  0.03  0.00  0.00  0.94  0.00
  H0022036                1.00   0.03  0.00  0.00  0.00  0.00  0.00  0.96  0.00  0.00
  H0021806                1.00   0.03  0.93  0.00  0.04  0.00  0.00  0.00  0.97  0.00
  H0022111                1.00   0.03  0.00  0.00  0.97  0.00  0.00  0.00  0.00  0.00
  H0021440                1.00   0.03  0.00  0.00  0.96  0.01  0.00  0.00  0.01  0.00
  H0021704                1.00   0.03  0.00  0.00  0.00  0.00  0.00  0.97  0.00  0.00
  H0020521                1.00   0.03  0.00  0.00  0.97  0.00  0.00  0.00  0.97  0.00
  H0020755                1.00   0.03  0.94  0.00  0.03  0.00  0.00  0.00  0.97  0.00
  H0020530                1.00   0.03  0.00  0.00  0.96  0.01  0.00  0.00  0.00  0.00
  H0020618                1.00   0.03  0.00  0.00  0.95  0.02  0.00  0.00  0.93  0.00
  H0021163                1.00   0.03  0.00  0.00  0.97  0.00  0.00  0.00  0.94  0.00
  H0020497                1.20   0.03  0.97  0.00  0.00  0.00  0.00  0.00  0.00  0.00
  H0024325                1.00   0.03  0.00  0.00  0.95  0.01  0.00  0.00  0.94  0.00
  H0023585                1.00   0.03  0.00  0.00  0.00  0.00  0.00  0.97  0.00  0.00
  H0024098                1.00   0.03  0.93  0.00  0.03  0.00  0.00  0.00  0.97  0.00
  H0024235                1.00   0.03  0.00  0.00  0.00  0.00  0.00  0.97  0.00  0.00
  H0024282                1.00   1.00  0.00  0.00  0.00  0.00  0.00  0.00  0.00  0.00
  H0024308                1.00   0.03  0.00  0.00  0.92  0.05  0.00  0.00  0.01  0.00
  H0024498                1.00   0.03  0.00  0.00  0.00  0.00  0.00  0.97  0.00  0.00
  H0026990                1.00   0.03  0.00  0.00  0.97  0.00  0.00  0.00  0.97  0.00
  H0041650                1.00   0.96  0.01  0.00  0.03  0.00  0.00  0.00  0.97  0.00
  H0041011                1.00   0.03  0.00  0.00  0.97  0.00  0.00  0.00  0.97  0.00
  H0045103                1.00   0.03  0.00  0.00  0.97  0.00  0.00  0.00  0.95  0.00
  H0045104                1.00   0.03  0.00  0.00  0.93  0.04  0.00  0.00  0.04  0.00
  H0045105                1.00   0.03  0.00  0.00  0.97  0.00  0.00  0.00  0.97  0.00
  H0045106                1.00   0.03  0.93  0.00  0.02  0.02  0.00  0.00  0.97  0.00
  H0045107                1.00   0.03  0.00  0.00  0.97  0.00  0.00  0.00  0.97  0.00
  H0045108                1.00   0.03  0.00  0.00  0.97  0.00  0.00  0.00  0.97  0.00
  
  
  *************************
  Conduit Surcharge Summary
  *************************
  
  No conduits were surcharged.
  

  Analysis begun on:  Fri Mar 22 15:54:58 2024
  Analysis ended on:  Fri Mar 22 15:55:08 2024
  Total elapsed time: 00:00:10