
  EPA STORM WATER MANAGEMENT MODEL - VERSION 5.2 (Build 5.2.4)
  PYSWMM TOOLKIT API - VERSION v1.0 (2023-11-27)
  ------------------------------------------------------------

  Gievenbeck_e2_T1D90 
  
  ****************
  Analysis Options
  ****************
  Flow Units ............... CMS
  Process Models:
    Rainfall/Runoff ........ YES
    RDII ................... NO
    Snowmelt ............... NO
    Groundwater ............ NO
    Flow Routing ........... YES
    Ponding Allowed ........ NO
    Water Quality .......... NO
  Infiltration Method ...... HORTON
  Flow Routing Method ...... DYNWAVE
  Surcharge Method ......... SLOT
  Starting Date ............ 01/01/2024 00:00:00
  Ending Date .............. 01/04/2024 04:00:00
  Antecedent Dry Days ...... 14.0
  Report Time Step ......... 00:01:00
  Wet Time Step ............ 00:01:00
  Dry Time Step ............ 00:01:00
  Routing Time Step ........ 1.00 sec
  Variable Time Step ....... YES
  Maximum Trials ........... 8
  Number of Threads ........ 1
  Head Tolerance ........... 0.001500 m
  
  
  **************************        Volume         Depth
  Runoff Quantity Continuity     hectare-m            mm
  **************************     ---------       -------
  Total Precipitation ......         0.166        16.370
  Evaporation Loss .........         0.010         0.953
  Infiltration Loss ........         0.093         9.228
  Surface Runoff ...........         0.063         6.205
  Final Storage ............         0.000         0.000
  Continuity Error (%) .....        -0.094
  
  
  **************************        Volume        Volume
  Flow Routing Continuity        hectare-m      10^6 ltr
  **************************     ---------     ---------
  Dry Weather Inflow .......         0.000         0.000
  Wet Weather Inflow .......         0.063         0.628
  Groundwater Inflow .......         0.000         0.000
  RDII Inflow ..............         0.000         0.000
  External Inflow ..........         0.000         0.000
  External Outflow .........         0.063         0.629
  Flooding Loss ............         0.000         0.000
  Evaporation Loss .........         0.000         0.000
  Exfiltration Loss ........         0.000         0.000
  Initial Stored Volume ....         0.000         0.000
  Final Stored Volume ......         0.000         0.000
  Continuity Error (%) .....        -0.110
  
  
  *************************
  Highest Continuity Errors
  *************************
  Node R0019718 (-1.18%)
  
  
  ***************************
  Time-Step Critical Elements
  ***************************
  None
  
  
  ********************************
  Highest Flow Instability Indexes
  ********************************
  All links are stable.
  
  
  *********************************
  Most Frequent Nonconverging Nodes
  *********************************
  Convergence obtained at all time steps.
  
  
  *************************
  Routing Time Step Summary
  *************************
  Minimum Time Step           :     0.79 sec
  Average Time Step           :     1.00 sec
  Maximum Time Step           :     1.00 sec
  % of Time in Steady State   :     0.00
  Average Iterations per Step :     2.00
  % of Steps Not Converging   :     0.00
  Time Step Frequencies       :
      1.000 -  0.871 sec      :   100.00 %
      0.871 -  0.758 sec      :     0.00 %
      0.758 -  0.660 sec      :     0.00 %
      0.660 -  0.574 sec      :     0.00 %
      0.574 -  0.500 sec      :     0.00 %
  
  
  ***************************
  Subcatchment Runoff Summary
  ***************************
  
  ------------------------------------------------------------------------------------------------------------------------------
                            Total      Total      Total      Total     Imperv       Perv      Total       Total     Peak  Runoff
                           Precip      Runon       Evap      Infil     Runoff     Runoff     Runoff      Runoff   Runoff   Coeff
  Subcatchment                 mm         mm         mm         mm         mm         mm         mm    10^6 ltr      CMS
  ------------------------------------------------------------------------------------------------------------------------------
  EZG_368                   16.37       0.00       0.95       9.27       7.25       0.00       6.16        0.03     0.04   0.377
  EZG_392                   16.37       0.00       0.94       9.27       7.26       0.00       6.17        0.02     0.03   0.377
  EZG_352                   16.37       0.00       0.95       9.27       7.24       0.00       6.16        0.04     0.05   0.376
  EZG_372                   16.37       0.00       0.93       9.28       7.27       0.00       6.18        0.01     0.01   0.378
  EZG_416                   16.37       0.00       0.94       9.27       7.26       0.00       6.17        0.02     0.03   0.377
  EZG_388                   16.37       0.00       0.95       9.27       7.25       0.00       6.16        0.03     0.04   0.376
  EZG_394                   16.37       0.00       0.94       9.27       7.26       0.00       6.17        0.02     0.03   0.377
  EZG_400                   16.37       0.00       0.94       9.27       7.26       0.00       6.17        0.02     0.02   0.377
  EZG_390                   16.37       0.00       0.94       9.27       7.26       0.00       6.17        0.02     0.03   0.377
  EZG_350                   16.37       0.00       0.95       9.27       7.25       0.00       6.16        0.03     0.04   0.376
  EZG_370                   16.37       0.00       0.95       9.27       7.25       0.00       6.17        0.02     0.03   0.377
  EZG_398                   16.37       0.00       0.93       9.28       7.27       0.00       6.19        0.01     0.01   0.378
  EZG_382                   16.37       0.00       0.93       9.28       7.28       0.00       6.19        0.01     0.01   0.378
  EZG_374                   16.37       0.00       1.14       7.85       8.70       0.00       7.40        0.03     0.04   0.452
  EZG_412                   16.37       0.00       0.92       9.28       7.29       0.01       6.20        0.00     0.00   0.379
  EZG_344                   16.37       0.00       0.94       9.27       7.26       0.00       6.17        0.02     0.02   0.377
  EZG_376                   16.37       0.00       0.94       9.27       7.26       0.00       6.18        0.01     0.02   0.377
  EZG_356                   16.37       0.00       0.95       9.27       7.24       0.00       6.16        0.04     0.06   0.376
  EZG_386                   16.37       0.00       0.96       9.27       7.24       0.00       6.15        0.05     0.07   0.376
  EZG_380                   16.37       0.00       0.95       9.27       7.25       0.00       6.17        0.02     0.04   0.377
  EZG_378                   16.37       0.00       0.94       9.27       7.25       0.00       6.17        0.02     0.03   0.377
  EZG_414                   16.37       0.00       0.93       9.28       7.28       0.00       6.19        0.01     0.01   0.378
  EZG_402                   16.37       0.00       0.94       9.27       7.26       0.00       6.17        0.02     0.03   0.377
  EZG_358                   16.37       0.00       0.95       9.27       7.24       0.00       6.16        0.04     0.06   0.376
  EZG_364                   16.37       0.00       0.95       9.27       7.24       0.00       6.16        0.04     0.06   0.376
  EZG_410                   16.37       0.00       0.94       9.27       7.26       0.00       6.18        0.01     0.02   0.377
  EZG_366                   16.37       0.00       0.94       9.27       7.26       0.00       6.17        0.01     0.02   0.377
  EZG_18259                 16.37       0.00       0.94       9.27       7.26       0.00       6.17        0.01     0.02   0.377
  EZG_18258                 16.37       0.00       0.93       9.28       7.28       0.01       6.19        0.00     0.01   0.378
  EZG_346                   16.37       0.00       0.93       9.42       7.11       0.00       6.04        0.02     0.03   0.369
  EZG_348                   16.37       0.00       0.92       9.42       7.12       0.00       6.05        0.01     0.02   0.370
  
  
  ******************
  Node Depth Summary
  ******************
  
  ---------------------------------------------------------------------------------
                                 Average  Maximum  Maximum  Time of Max    Reported
                                   Depth    Depth      HGL   Occurrence   Max Depth
  Node                 Type       Meters   Meters   Meters  days hr:min      Meters
  ---------------------------------------------------------------------------------
  R0019466             JUNCTION     0.00     0.37    69.82     0  02:35        0.35
  R0019468             JUNCTION     0.00     0.33    69.64     0  02:35        0.31
  R0019831             JUNCTION     0.00     0.13    69.30     0  02:35        0.13
  R0019825             JUNCTION     0.00     0.23    69.07     0  02:35        0.23
  R0019843             JUNCTION     0.00     0.34    67.97     0  02:36        0.34
  R0019368             JUNCTION     0.00     0.51    67.30     0  02:36        0.51
  R0019369             JUNCTION     0.00     0.37    66.96     0  02:36        0.36
  R0019370             JUNCTION     0.00     0.31    66.21     0  02:37        0.31
  R0019345             JUNCTION     0.00     0.24    70.14     0  02:35        0.23
  R0019346             JUNCTION     0.00     0.22    70.02     0  02:35        0.21
  R0043600             JUNCTION     0.00     0.24    69.91     0  02:35        0.24
  R0019203             JUNCTION     0.00     0.27    69.81     0  02:35        0.27
  R0043594             JUNCTION     0.00     0.20    69.93     0  02:35        0.20
  R0021458             JUNCTION     0.00     0.25    69.90     0  02:35        0.24
  R0019202             JUNCTION     0.00     0.25    69.83     0  02:35        0.25
  R0019373             JUNCTION     0.00     0.15    69.82     0  02:35        0.14
  R0019254             JUNCTION     0.00     0.24    70.28     0  02:35        0.24
  R0019716             JUNCTION     0.00     0.31    69.32     0  02:35        0.31
  R0019946             JUNCTION     0.00     0.45    69.07     0  02:35        0.45
  R0013935             JUNCTION     0.00     0.12    68.95     0  02:35        0.12
  R0019939             JUNCTION     0.00     0.27    68.84     0  02:36        0.27
  R0019944             JUNCTION     0.00     0.28    68.56     0  02:36        0.28
  R0043703             JUNCTION     0.00     0.34    68.94     0  02:36        0.34
  R0019945             JUNCTION     0.00     0.35    68.75     0  02:36        0.35
  R0039621             JUNCTION     0.00     0.10    69.67     0  02:35        0.10
  R0019838             JUNCTION     0.00     0.21    69.67     0  02:35        0.21
  R0039606             JUNCTION     0.00     0.24    69.83     0  02:35        0.24
  R0019204             JUNCTION     0.00     0.00    69.91     0  00:00        0.00
  R0019205             JUNCTION     0.00     0.00    69.62     0  00:00        0.00
  R0019849             JUNCTION     0.00     0.32    68.84     0  02:35        0.31
  R0019371             JUNCTION     0.00     0.00    70.41     0  00:00        0.00
  R0019718             JUNCTION     0.00     0.35    69.77     0  02:36        0.35
  R0021442             JUNCTION     0.00     0.45    70.50     0  02:35        0.44
  R0019247             JUNCTION     0.00     0.28    70.16     0  02:35        0.27
  R0019719             JUNCTION     0.00     0.23    69.91     0  02:35        0.23
  R0019767             JUNCTION     0.00     0.33    65.06     0  02:37        0.33
  R0019768             JUNCTION     0.00     0.28    64.05     0  02:37        0.28
  R0021453             JUNCTION     0.00     0.08    70.03     0  02:35        0.08
  R0019839             JUNCTION     0.00     0.19    69.58     0  02:35        0.19
  R0019717             JUNCTION     0.00     0.31    69.65     0  02:35        0.31
  R0019252             JUNCTION     0.00     0.17    70.36     0  02:35        0.17
  R0019721             JUNCTION     0.00     0.18    70.05     0  02:35        0.17
  R0019942             JUNCTION     0.00     0.18    68.83     0  02:36        0.18
  R0019206             JUNCTION     0.00     0.00    69.07     0  00:00        0.00
  R0019840             JUNCTION     0.00     0.17    69.14     0  02:35        0.17
  R0043702             JUNCTION     0.00     0.26    68.96     0  02:35        0.26
  R0019723             JUNCTION     0.00     0.12    70.20     0  02:35        0.12
  R0019724             JUNCTION     0.00     0.07    70.23     0  02:35        0.07
  R0021433             JUNCTION     0.00     0.20    70.59     0  02:35        0.19
  R0021435             JUNCTION     0.00     0.40    70.58     0  02:35        0.38
  R0019769             OUTFALL      0.00     0.28    63.66     0  02:37        0.28
  
  
  *******************
  Node Inflow Summary
  *******************
  
  -------------------------------------------------------------------------------------------------
                                  Maximum  Maximum                  Lateral       Total        Flow
                                  Lateral    Total  Time of Max      Inflow      Inflow     Balance
                                   Inflow   Inflow   Occurrence      Volume      Volume       Error
  Node                 Type           CMS      CMS  days hr:min    10^6 ltr    10^6 ltr     Percent
  -------------------------------------------------------------------------------------------------
  R0019466             JUNCTION     0.037    0.069     0  02:34      0.0255      0.0476       0.045
  R0019468             JUNCTION     0.022    0.083     0  02:35      0.0148      0.0623      -0.020
  R0019831             JUNCTION     0.030    0.030     0  02:35        0.02        0.02      -0.063
  R0019825             JUNCTION     0.030    0.059     0  02:35        0.02        0.04       0.010
  R0019843             JUNCTION     0.000    0.743     0  02:36           0       0.629      -0.015
  R0019368             JUNCTION     0.000    0.742     0  02:36           0       0.629       0.007
  R0019369             JUNCTION     0.000    0.755     0  02:36           0       0.629      -0.003
  R0019370             JUNCTION     0.000    0.740     0  02:36           0       0.629       0.009
  R0019345             JUNCTION     0.000    0.055     0  02:35           0      0.0391       0.052
  R0019346             JUNCTION     0.004    0.090     0  02:35     0.00247      0.0654       0.036
  R0043600             JUNCTION     0.000    0.094     0  02:35           0      0.0759       0.076
  R0019203             JUNCTION     0.009    0.207     0  02:35     0.00547        0.17      -0.017
  R0043594             JUNCTION     0.052    0.075     0  02:35      0.0364       0.052      -0.092
  R0021458             JUNCTION     0.041    0.110     0  02:35      0.0283      0.0803      -0.026
  R0019202             JUNCTION     0.013    0.110     0  02:35     0.00836      0.0886      -0.014
  R0019373             JUNCTION     0.033    0.033     0  02:35      0.0221      0.0221      -0.021
  R0019254             JUNCTION     0.027    0.057     0  02:35       0.018      0.0391      -0.024
  R0019716             JUNCTION     0.041    0.420     0  02:35      0.0281        0.35      -0.027
  R0019946             JUNCTION     0.000    0.421     0  02:35           0        0.35       0.017
  R0013935             JUNCTION     0.026    0.026     0  02:35      0.0171      0.0171      -0.090
  R0019939             JUNCTION     0.010    0.035     0  02:35     0.00612      0.0233       0.007
  R0019944             JUNCTION     0.024    0.532     0  02:36      0.0159       0.449       0.007
  R0043703             JUNCTION     0.029    0.446     0  02:36      0.0195        0.37       0.016
  R0019945             JUNCTION     0.000    0.521     0  02:36           0       0.433      -0.009
  R0039621             JUNCTION     0.000    0.003     0  02:32           0    0.000532       1.461
  R0019838             JUNCTION     0.056    0.056     0  02:35      0.0395        0.04      -0.021
  R0039606             JUNCTION     0.000    0.104     0  02:35           0      0.0804       0.115
  R0019204             JUNCTION     0.000    0.000     0  00:00           0           0       0.000 ltr
  R0019205             JUNCTION     0.000    0.000     0  00:00           0           0       0.000 ltr
  R0019849             JUNCTION     0.000    0.083     0  02:34           0      0.0633       0.038
  R0019371             JUNCTION     0.000    0.000     0  00:00           0           0       0.000 ltr
  R0019718             JUNCTION     0.035    0.230     0  02:35       0.024       0.194      -1.163
  R0021442             JUNCTION     0.040    0.080     0  02:35       0.028      0.0635       0.055
  R0019247             JUNCTION     0.019    0.097     0  02:35      0.0123      0.0758      -0.076
  R0019719             JUNCTION     0.020    0.106     0  02:35       0.013      0.0784      -0.022
  R0019767             JUNCTION     0.000    0.739     0  02:37           0       0.629      -0.012
  R0019768             JUNCTION     0.000    0.740     0  02:37           0       0.629       0.018
  R0021453             JUNCTION     0.024    0.024     0  02:35      0.0156      0.0156      -0.034
  R0019839             JUNCTION     0.055    0.106     0  02:35       0.039      0.0784      -0.018
  R0019717             JUNCTION     0.068    0.386     0  02:35      0.0491       0.324       0.494
  R0019252             JUNCTION     0.031    0.031     0  02:35      0.0211      0.0211      -0.053
  R0019721             JUNCTION     0.008    0.036     0  02:35     0.00538      0.0239       0.031
  R0019942             JUNCTION     0.000    0.057     0  02:35           0        0.04       0.028
  R0019206             JUNCTION     0.000    0.000     0  00:00           0           0       0.000 ltr
  R0019840             JUNCTION     0.000    0.184     0  02:35           0       0.141       0.016
  R0043702             JUNCTION     0.055    0.232     0  02:35       0.039        0.18      -0.010
  R0019723             JUNCTION     0.022    0.028     0  02:35      0.0147      0.0185      -0.120
  R0019724             JUNCTION     0.006    0.006     0  02:35     0.00379     0.00379      -0.139
  R0021433             JUNCTION     0.033    0.033     0  02:35       0.022       0.022      -0.201
  R0021435             JUNCTION     0.020    0.052     0  02:34      0.0135      0.0355       0.017
  R0019769             OUTFALL      0.000    0.740     0  02:37           0       0.629       0.000
  
  
  **********************
  Node Surcharge Summary
  **********************
  
  Surcharging occurs when water rises above the top of the highest conduit.
  ---------------------------------------------------------------------
                                               Max. Height   Min. Depth
                                   Hours       Above Crown    Below Rim
  Node                 Type      Surcharged         Meters       Meters
  ---------------------------------------------------------------------
  R0019466             JUNCTION        0.03          0.067        2.443
  R0019468             JUNCTION        0.02          0.027        2.403
  R0019849             JUNCTION        0.02          0.015        1.915
  R0021442             JUNCTION        0.06          0.153        1.597
  R0021435             JUNCTION        0.03          0.100        1.710
  
  
  *********************
  Node Flooding Summary
  *********************
  
  No nodes were flooded.
  
  
  ***********************
  Outfall Loading Summary
  ***********************
  
  -----------------------------------------------------------
                         Flow       Avg       Max       Total
                         Freq      Flow      Flow      Volume
  Outfall Node           Pcnt       CMS       CMS    10^6 ltr
  -----------------------------------------------------------
  R0019769               4.99     0.046     0.740       0.629
  -----------------------------------------------------------
  System                 4.99     0.046     0.740       0.629
  
  
  ********************
  Link Flow Summary
  ********************
  
  -----------------------------------------------------------------------------
                                 Maximum  Time of Max   Maximum    Max/    Max/
                                  |Flow|   Occurrence   |Veloc|    Full    Full
  Link                 Type          CMS  days hr:min     m/sec    Flow   Depth
  -----------------------------------------------------------------------------
  H0014431             CONDUIT     0.063     0  02:35      0.89    1.16    1.00
  H0014433             CONDUIT     0.029     0  02:35      0.67    0.37    0.60
  H0014352             CONDUIT     0.742     0  02:36      2.52    0.30    0.47
  H0014373             CONDUIT     0.740     0  02:36      3.37    0.34    0.38
  H0017981             CONDUIT     0.054     0  02:35      1.03    1.53    0.70
  H0017755             CONDUIT     0.093     0  02:36      1.25    0.75    0.57
  H0017791             CONDUIT     0.070     0  02:35      0.57    0.10    0.25
  H0017357             CONDUIT     0.000     0  00:00      0.00    0.00    0.25
  H0018216             CONDUIT     0.055     0  02:35      0.90    0.99    0.80
  H0016792             CONDUIT     0.421     0  02:35      1.64    0.24    0.42
  H0019507             CONDUIT     0.025     0  02:35      0.65    0.35    0.64
  H0019998             CONDUIT     0.531     0  02:36      2.73    0.21    0.35
  H0019576             CONDUIT     0.448     0  02:36      1.99    0.30    0.38
  H0020087             CONDUIT     0.004     0  02:36      0.13    0.02    0.31
  H0020211             CONDUIT     0.429     0  02:36      1.61    1.07    0.44
  H0018982             CONDUIT     0.104     0  02:35      0.75    0.17    0.27
  H0018753             CONDUIT     0.032     0  02:34      0.59    0.45    0.85
  H0018845             CONDUIT     0.000     0  00:00      0.00    0.00    0.00
  H0018863             CONDUIT     0.029     0  02:34      0.56    0.69    0.98
  H0019156             CONDUIT     0.000     0  00:00      0.00    0.00    0.00
  H0018929             CONDUIT     0.208     0  02:36      1.06    0.18    0.35
  H0018440             CONDUIT     0.080     0  02:35      1.14    1.44    1.00
  H0018456             CONDUIT     0.090     0  02:35      1.26    0.55    0.55
  H0018968             CONDUIT     0.740     0  02:37      3.83    0.28    0.34
  H0022036             CONDUIT     0.023     0  02:35      0.47    0.02    0.14
  H0021806             CONDUIT     0.094     0  02:35      1.09    0.83    0.65
  H0022111             CONDUIT     0.052     0  02:35      0.70    0.37    0.40
  H0021440             CONDUIT     0.389     0  02:35      2.01    0.25    0.34
  H0021704             CONDUIT     0.231     0  02:36      1.17    0.44    0.35
  H0020521             CONDUIT     0.031     0  02:35      0.59    0.62    0.69
  H0020755             CONDUIT     0.033     0  02:35      0.55    0.37    0.49
  H0020530             CONDUIT     0.755     0  02:36      2.45    0.65    0.49
  H0020618             CONDUIT     0.519     0  02:36      2.60    0.32    0.35
  H0021163             CONDUIT     0.057     0  02:35      1.14    0.95    0.67
  H0020497             CONDUIT     0.000     0  00:00      0.00    0.00    0.57
  H0024325             CONDUIT     0.104     0  02:35      1.60    0.31    0.37
  H0023585             CONDUIT     0.232     0  02:35      2.25    0.53    0.52
  H0024098             CONDUIT     0.078     0  02:34      1.15    0.91    1.00
  H0024235             CONDUIT     0.105     0  02:35      1.24    0.43    0.45
  H0024282             CONDUIT     0.000     0  00:00      0.00    0.00    0.00
  H0024308             CONDUIT     0.740     0  02:37      4.29    0.22    0.32
  H0024498             CONDUIT     0.080     0  02:35      1.19    1.24    0.91
  H0026990             CONDUIT     0.028     0  02:35      0.66    0.21    0.38
  H0041650             CONDUIT     0.110     0  02:35      0.72    0.13    0.29
  H0041011             CONDUIT     0.055     0  02:35      1.03    0.54    0.83
  H0045103             CONDUIT     0.103     0  02:36      0.74    0.13    0.27
  H0045104             CONDUIT     0.739     0  02:37      3.59    0.26    0.36
  H0045105             CONDUIT     0.006     0  02:35      0.32    0.10    0.31
  H0045106             CONDUIT     0.185     0  02:35      2.26    0.25    0.43
  H0045107             CONDUIT     0.031     0  02:34      0.68    0.52    0.95
  H0045108             CONDUIT     0.046     0  02:36      0.66    0.82    1.00
  
  
  ***************************
  Flow Classification Summary
  ***************************
  
  -------------------------------------------------------------------------------------
                      Adjusted    ---------- Fraction of Time in Flow Class ---------- 
                       /Actual         Up    Down  Sub   Sup   Up    Down  Norm  Inlet 
  Conduit               Length    Dry  Dry   Dry   Crit  Crit  Crit  Crit  Ltd   Ctrl  
  -------------------------------------------------------------------------------------
  H0014431                1.00   0.03  0.00  0.00  0.97  0.00  0.00  0.00  0.97  0.00
  H0014433                1.00   0.03  0.00  0.00  0.97  0.00  0.00  0.00  0.97  0.00
  H0014352                1.00   0.03  0.00  0.00  0.94  0.03  0.00  0.00  0.97  0.00
  H0014373                1.00   0.03  0.00  0.00  0.93  0.04  0.00  0.00  0.91  0.00
  H0017981                1.00   0.03  0.00  0.00  0.00  0.00  0.00  0.97  0.00  0.00
  H0017755                1.00   0.03  0.00  0.00  0.00  0.00  0.00  0.97  0.00  0.00
  H0017791                1.00   0.03  0.00  0.00  0.97  0.00  0.00  0.00  0.97  0.00
  H0017357                1.00   0.03  0.97  0.00  0.00  0.00  0.00  0.00  0.00  0.00
  H0018216                1.00   0.03  0.92  0.00  0.05  0.00  0.00  0.00  0.97  0.00
  H0016792                1.00   0.03  0.91  0.00  0.06  0.00  0.00  0.00  0.97  0.00
  H0019507                1.00   0.03  0.00  0.00  0.97  0.00  0.00  0.00  0.97  0.00
  H0019998                1.00   0.03  0.00  0.00  0.93  0.04  0.00  0.00  0.06  0.00
  H0019576                1.00   0.03  0.00  0.00  0.95  0.02  0.00  0.00  0.06  0.00
  H0020087                1.00   0.03  0.96  0.00  0.01  0.00  0.00  0.00  0.97  0.00
  H0020211                1.00   0.03  0.00  0.00  0.97  0.00  0.00  0.00  0.91  0.00
  H0018982                1.00   0.03  0.00  0.00  0.97  0.00  0.00  0.00  0.93  0.00
  H0018753                1.00   0.03  0.00  0.00  0.97  0.00  0.00  0.00  0.97  0.00
  H0018845                1.00   1.00  0.00  0.00  0.00  0.00  0.00  0.00  0.00  0.00
  H0018863                1.00   0.03  0.00  0.00  0.97  0.00  0.00  0.00  0.97  0.00
  H0019156                1.00   1.00  0.00  0.00  0.00  0.00  0.00  0.00  0.00  0.00
  H0018929                1.00   0.03  0.92  0.00  0.05  0.00  0.00  0.00  0.97  0.00
  H0018440                1.00   0.03  0.00  0.00  0.97  0.00  0.00  0.00  0.97  0.00
  H0018456                1.00   0.03  0.00  0.00  0.97  0.00  0.00  0.00  0.97  0.00
  H0018968                1.00   0.03  0.00  0.00  0.92  0.05  0.00  0.00  0.93  0.00
  H0022036                1.00   0.03  0.00  0.00  0.01  0.01  0.00  0.95  0.01  0.00
  H0021806                1.00   0.03  0.92  0.00  0.05  0.00  0.00  0.00  0.95  0.00
  H0022111                1.00   0.03  0.00  0.00  0.97  0.00  0.00  0.00  0.00  0.00
  H0021440                1.00   0.03  0.00  0.00  0.94  0.03  0.00  0.00  0.02  0.00
  H0021704                1.00   0.03  0.00  0.00  0.00  0.00  0.00  0.97  0.00  0.00
  H0020521                1.00   0.03  0.00  0.00  0.97  0.00  0.00  0.00  0.97  0.00
  H0020755                1.00   0.03  0.92  0.00  0.04  0.00  0.00  0.00  0.97  0.00
  H0020530                1.00   0.03  0.00  0.00  0.94  0.03  0.00  0.00  0.00  0.00
  H0020618                1.00   0.03  0.00  0.00  0.93  0.04  0.00  0.00  0.92  0.00
  H0021163                1.00   0.03  0.00  0.00  0.97  0.00  0.00  0.00  0.93  0.00
  H0020497                1.20   0.03  0.97  0.00  0.00  0.00  0.00  0.00  0.00  0.00
  H0024325                1.00   0.03  0.00  0.00  0.94  0.03  0.00  0.00  0.93  0.00
  H0023585                1.00   0.03  0.00  0.00  0.00  0.00  0.00  0.97  0.00  0.00
  H0024098                1.00   0.03  0.92  0.00  0.05  0.00  0.00  0.00  0.97  0.00
  H0024235                1.00   0.03  0.00  0.00  0.00  0.00  0.00  0.97  0.00  0.00
  H0024282                1.00   1.00  0.00  0.00  0.00  0.00  0.00  0.00  0.00  0.00
  H0024308                1.00   0.03  0.00  0.00  0.91  0.06  0.00  0.00  0.01  0.00
  H0024498                1.00   0.03  0.00  0.00  0.00  0.00  0.00  0.97  0.00  0.00
  H0026990                1.00   0.03  0.00  0.00  0.97  0.00  0.00  0.00  0.97  0.00
  H0041650                1.00   0.95  0.01  0.00  0.04  0.00  0.00  0.00  0.96  0.00
  H0041011                1.00   0.03  0.00  0.00  0.97  0.00  0.00  0.00  0.97  0.00
  H0045103                1.00   0.03  0.00  0.00  0.97  0.00  0.00  0.00  0.94  0.00
  H0045104                1.00   0.03  0.00  0.00  0.92  0.05  0.00  0.00  0.06  0.00
  H0045105                1.00   0.03  0.00  0.00  0.97  0.00  0.00  0.00  0.97  0.00
  H0045106                1.00   0.03  0.92  0.00  0.02  0.03  0.00  0.00  0.97  0.00
  H0045107                1.00   0.03  0.00  0.00  0.97  0.00  0.00  0.00  0.97  0.00
  H0045108                1.00   0.03  0.00  0.00  0.97  0.00  0.00  0.00  0.97  0.00
  
  
  *************************
  Conduit Surcharge Summary
  *************************
  
  ----------------------------------------------------------------------------
                                                           Hours        Hours 
                         --------- Hours Full --------   Above Full   Capacity
  Conduit                Both Ends  Upstream  Dnstream   Normal Flow   Limited
  ----------------------------------------------------------------------------
  H0014431                    0.02      0.03      0.02      0.06         0.03
  H0017981                    0.01      0.01      0.01      0.08         0.01
  H0020211                    0.01      0.01      0.01      0.03         0.01
  H0018753                    0.01      0.01      0.03      0.01         0.01
  H0018863                    0.01      0.01      0.02      0.01         0.01
  H0018440                    0.01      0.06      0.01      0.09         0.04
  H0024098                    0.02      0.02      0.07      0.01         0.01
  H0024498                    0.01      0.02      0.01      0.06         0.01
  H0041011                    0.01      0.01      0.02      0.01         0.01
  H0045107                    0.01      0.01      0.03      0.01         0.01
  H0045108                    0.03      0.03      0.06      0.01         0.01
  

  Analysis begun on:  Fri Mar 22 15:56:22 2024
  Analysis ended on:  Fri Mar 22 15:56:32 2024
  Total elapsed time: 00:00:10