
  EPA STORM WATER MANAGEMENT MODEL - VERSION 5.2 (Build 5.2.4)
  PYSWMM TOOLKIT API - VERSION v1.0 (2023-11-27)
  ------------------------------------------------------------

  Gievenbeck_e2_T5D60 
  
  ****************
  Analysis Options
  ****************
  Flow Units ............... CMS
  Process Models:
    Rainfall/Runoff ........ YES
    RDII ................... NO
    Snowmelt ............... NO
    Groundwater ............ NO
    Flow Routing ........... YES
    Ponding Allowed ........ NO
    Water Quality .......... NO
  Infiltration Method ...... HORTON
  Flow Routing Method ...... DYNWAVE
  Surcharge Method ......... SLOT
  Starting Date ............ 01/01/2024 00:00:00
  Ending Date .............. 01/04/2024 04:00:00
  Antecedent Dry Days ...... 14.0
  Report Time Step ......... 00:01:00
  Wet Time Step ............ 00:01:00
  Dry Time Step ............ 00:01:00
  Routing Time Step ........ 1.00 sec
  Variable Time Step ....... YES
  Maximum Trials ........... 8
  Number of Threads ........ 1
  Head Tolerance ........... 0.001500 m
  
  
  **************************        Volume         Depth
  Runoff Quantity Continuity     hectare-m            mm
  **************************     ---------       -------
  Total Precipitation ......         0.241        23.810
  Evaporation Loss .........         0.010         0.956
  Infiltration Loss ........         0.129        12.725
  Surface Runoff ...........         0.103        10.166
  Final Storage ............         0.000         0.000
  Continuity Error (%) .....        -0.151
  
  
  **************************        Volume        Volume
  Flow Routing Continuity        hectare-m      10^6 ltr
  **************************     ---------     ---------
  Dry Weather Inflow .......         0.000         0.000
  Wet Weather Inflow .......         0.103         1.029
  Groundwater Inflow .......         0.000         0.000
  RDII Inflow ..............         0.000         0.000
  External Inflow ..........         0.000         0.000
  External Outflow .........         0.103         1.029
  Flooding Loss ............         0.000         0.000
  Evaporation Loss .........         0.000         0.000
  Exfiltration Loss ........         0.000         0.000
  Initial Stored Volume ....         0.000         0.000
  Final Stored Volume ......         0.000         0.000
  Continuity Error (%) .....        -0.038
  
  
  *************************
  Highest Continuity Errors
  *************************
  Node R0019373 (2.50%)
  Node R0019718 (-1.64%)
  
  
  ***************************
  Time-Step Critical Elements
  ***************************
  None
  
  
  ********************************
  Highest Flow Instability Indexes
  ********************************
  All links are stable.
  
  
  *********************************
  Most Frequent Nonconverging Nodes
  *********************************
  Convergence obtained at all time steps.
  
  
  *************************
  Routing Time Step Summary
  *************************
  Minimum Time Step           :     0.02 sec
  Average Time Step           :     1.00 sec
  Maximum Time Step           :     1.00 sec
  % of Time in Steady State   :     0.00
  Average Iterations per Step :     2.00
  % of Steps Not Converging   :     0.00
  Time Step Frequencies       :
      1.000 -  0.871 sec      :   100.00 %
      0.871 -  0.758 sec      :     0.00 %
      0.758 -  0.660 sec      :     0.00 %
      0.660 -  0.574 sec      :     0.00 %
      0.574 -  0.500 sec      :     0.00 %
  
  
  ***************************
  Subcatchment Runoff Summary
  ***************************
  
  ------------------------------------------------------------------------------------------------------------------------------
                            Total      Total      Total      Total     Imperv       Perv      Total       Total     Peak  Runoff
                           Precip      Runon       Evap      Infil     Runoff     Runoff     Runoff      Runoff   Runoff   Coeff
  Subcatchment                 mm         mm         mm         mm         mm         mm         mm    10^6 ltr      CMS
  ------------------------------------------------------------------------------------------------------------------------------
  EZG_368                   23.81       0.00       0.95      12.82      10.98       0.74      10.08        0.04     0.07   0.423
  EZG_392                   23.81       0.00       0.95      12.76      10.99       0.81      10.15        0.03     0.06   0.426
  EZG_352                   23.81       0.00       0.96      12.91      10.97       0.65       9.98        0.06     0.10   0.419
  EZG_372                   23.81       0.00       0.94      12.52      11.01       1.05      10.40        0.01     0.03   0.437
  EZG_416                   23.81       0.00       0.94      12.73      10.99       0.83      10.18        0.03     0.05   0.427
  EZG_388                   23.81       0.00       0.95      12.84      10.98       0.72      10.05        0.05     0.08   0.422
  EZG_394                   23.81       0.00       0.94      12.71      10.99       0.85      10.19        0.03     0.05   0.428
  EZG_400                   23.81       0.00       0.94      12.69      10.99       0.87      10.21        0.03     0.05   0.429
  EZG_390                   23.81       0.00       0.95      12.75      10.99       0.81      10.15        0.03     0.06   0.426
  EZG_350                   23.81       0.00       0.95      12.84      10.98       0.71      10.05        0.05     0.08   0.422
  EZG_370                   23.81       0.00       0.95      12.78      10.99       0.78      10.12        0.04     0.06   0.425
  EZG_398                   23.81       0.00       0.93      12.43      11.01       1.14      10.50        0.01     0.02   0.441
  EZG_382                   23.81       0.00       0.93      12.40      11.01       1.17      10.54        0.01     0.02   0.442
  EZG_374                   23.81       0.00       1.14      10.57      13.17       0.94      12.13        0.05     0.08   0.510
  EZG_412                   23.81       0.00       0.92      12.17      11.03       1.41      10.78        0.00     0.01   0.453
  EZG_344                   23.81       0.00       0.94      12.69      10.99       0.87      10.22        0.03     0.05   0.429
  EZG_376                   23.81       0.00       0.94      12.63      11.00       0.94      10.29        0.02     0.04   0.432
  EZG_356                   23.81       0.00       0.96      12.92      10.97       0.63       9.96        0.06     0.11   0.418
  EZG_386                   23.81       0.00       0.96      12.98      10.97       0.58       9.90        0.08     0.13   0.416
  EZG_380                   23.81       0.00       0.95      12.80      10.98       0.76      10.09        0.04     0.07   0.424
  EZG_378                   23.81       0.00       0.95      12.77      10.99       0.79      10.13        0.03     0.06   0.425
  EZG_414                   23.81       0.00       0.93      12.39      11.01       1.18      10.54        0.01     0.02   0.443
  EZG_402                   23.81       0.00       0.95      12.76      10.99       0.81      10.15        0.03     0.06   0.426
  EZG_358                   23.81       0.00       0.96      12.92      10.97       0.63       9.96        0.06     0.10   0.418
  EZG_364                   23.81       0.00       0.96      12.92      10.97       0.63       9.96        0.06     0.10   0.418
  EZG_410                   23.81       0.00       0.94      12.64      11.00       0.93      10.27        0.02     0.04   0.431
  EZG_366                   23.81       0.00       0.94      12.67      10.99       0.89      10.23        0.02     0.04   0.430
  EZG_18259                 23.81       0.00       0.94      12.67      10.99       0.89      10.24        0.02     0.04   0.430
  EZG_18258                 23.81       0.00       0.93      12.29      11.02       1.28      10.65        0.01     0.01   0.447
  EZG_346                   23.81       0.00       0.93      13.00      10.77       0.76       9.91        0.04     0.06   0.416
  EZG_348                   23.81       0.00       0.92      12.88      10.78       0.89      10.05        0.02     0.04   0.422
  
  
  ******************
  Node Depth Summary
  ******************
  
  ---------------------------------------------------------------------------------
                                 Average  Maximum  Maximum  Time of Max    Reported
                                   Depth    Depth      HGL   Occurrence   Max Depth
  Node                 Type       Meters   Meters   Meters  days hr:min      Meters
  ---------------------------------------------------------------------------------
  R0019466             JUNCTION     0.00     0.76    70.21     0  02:25        0.75
  R0019468             JUNCTION     0.00     0.67    69.98     0  02:25        0.67
  R0019831             JUNCTION     0.00     0.91    70.08     0  02:25        0.86
  R0019825             JUNCTION     0.00     1.11    69.95     0  02:25        1.06
  R0019843             JUNCTION     0.00     0.51    68.14     0  02:26        0.51
  R0019368             JUNCTION     0.00     0.74    67.53     0  02:26        0.72
  R0019369             JUNCTION     0.00     0.54    67.13     0  02:26        0.54
  R0019370             JUNCTION     0.00     0.46    66.36     0  02:26        0.45
  R0019345             JUNCTION     0.00     0.44    70.34     0  02:25        0.43
  R0019346             JUNCTION     0.00     0.35    70.15     0  02:25        0.34
  R0043600             JUNCTION     0.00     0.43    70.10     0  02:25        0.41
  R0019203             JUNCTION     0.00     0.44    69.98     0  02:25        0.44
  R0043594             JUNCTION     0.00     0.30    70.03     0  02:25        0.29
  R0021458             JUNCTION     0.00     0.37    70.02     0  02:25        0.37
  R0019202             JUNCTION     0.00     0.41    69.99     0  02:25        0.40
  R0019373             JUNCTION     0.00     0.53    70.20     0  02:25        0.53
  R0019254             JUNCTION     0.00     0.82    70.86     0  02:25        0.80
  R0019716             JUNCTION     0.00     0.48    69.49     0  02:25        0.48
  R0019946             JUNCTION     0.00     0.67    69.29     0  02:26        0.67
  R0013935             JUNCTION     0.00     0.65    69.48     0  02:25        0.63
  R0019939             JUNCTION     0.00     0.82    69.39     0  02:25        0.78
  R0019944             JUNCTION     0.00     0.42    68.70     0  02:26        0.41
  R0043703             JUNCTION     0.00     0.52    69.12     0  02:26        0.52
  R0019945             JUNCTION     0.00     0.53    68.93     0  02:26        0.52
  R0039621             JUNCTION     0.00     0.19    69.76     0  02:25        0.19
  R0019838             JUNCTION     0.00     0.30    69.76     0  02:25        0.30
  R0039606             JUNCTION     0.00     0.40    69.99     0  02:25        0.40
  R0019204             JUNCTION     0.00     0.00    69.91     0  00:00        0.00
  R0019205             JUNCTION     0.00     0.00    69.62     0  00:00        0.00
  R0019849             JUNCTION     0.00     0.78    69.30     0  02:25        0.74
  R0019371             JUNCTION     0.00     0.00    70.41     0  00:00        0.00
  R0019718             JUNCTION     0.00     0.53    69.95     0  02:25        0.52
  R0021442             JUNCTION     0.00     1.82    71.87     0  02:25        1.74
  R0019247             JUNCTION     0.00     0.77    70.65     0  02:25        0.75
  R0019719             JUNCTION     0.00     0.35    70.03     0  02:25        0.34
  R0019767             JUNCTION     0.00     0.49    65.22     0  02:26        0.47
  R0019768             JUNCTION     0.00     0.41    64.18     0  02:26        0.40
  R0021453             JUNCTION     0.00     0.11    70.06     0  02:25        0.11
  R0019839             JUNCTION     0.00     0.28    69.67     0  02:25        0.27
  R0019717             JUNCTION     0.00     0.47    69.81     0  02:25        0.46
  R0019252             JUNCTION     0.00     0.87    71.06     0  02:25        0.85
  R0019721             JUNCTION     0.00     0.31    70.18     0  02:25        0.30
  R0019942             JUNCTION     0.00     0.78    69.43     0  02:25        0.72
  R0019206             JUNCTION     0.00     0.00    69.07     0  00:00        0.00
  R0019840             JUNCTION     0.00     0.25    69.22     0  02:25        0.25
  R0043702             JUNCTION     0.00     0.38    69.08     0  02:25        0.37
  R0019723             JUNCTION     0.00     0.18    70.26     0  02:25        0.18
  R0019724             JUNCTION     0.00     0.11    70.27     0  02:25        0.10
  R0021433             JUNCTION     0.00     1.91    72.30     0  02:25        1.80
  R0021435             JUNCTION     0.00     1.98    72.16     0  02:25        1.87
  R0019769             OUTFALL      0.00     0.41    63.79     0  02:26        0.40
  
  
  *******************
  Node Inflow Summary
  *******************
  
  -------------------------------------------------------------------------------------------------
                                  Maximum  Maximum                  Lateral       Total        Flow
                                  Lateral    Total  Time of Max      Inflow      Inflow     Balance
                                   Inflow   Inflow   Occurrence      Volume      Volume       Error
  Node                 Type           CMS      CMS  days hr:min    10^6 ltr    10^6 ltr     Percent
  -------------------------------------------------------------------------------------------------
  R0019466             JUNCTION     0.071    0.086     0  02:22      0.0416      0.0683       0.165
  R0019468             JUNCTION     0.044    0.114     0  02:25      0.0245      0.0926      -0.049
  R0019831             JUNCTION     0.057    0.057     0  02:25      0.0329      0.0329       0.123
  R0019825             JUNCTION     0.057    0.107     0  02:25       0.033      0.0658       0.304
  R0019843             JUNCTION     0.000    1.434     0  02:26           0        1.03      -0.007
  R0019368             JUNCTION     0.000    1.440     0  02:26           0        1.03       0.021
  R0019369             JUNCTION     0.000    1.457     0  02:27           0        1.03      -0.021
  R0019370             JUNCTION     0.000    1.448     0  02:26           0        1.03       0.005
  R0019345             JUNCTION     0.000    0.107     0  02:25           0      0.0644       0.087
  R0019346             JUNCTION     0.009    0.174     0  02:25      0.0043       0.109      -0.021
  R0043600             JUNCTION     0.000    0.188     0  02:25           0       0.125      -0.087
  R0019203             JUNCTION     0.018    0.439     0  02:25     0.00931       0.289      -0.004
  R0043594             JUNCTION     0.098    0.142     0  02:25       0.059      0.0848      -0.068
  R0021458             JUNCTION     0.078    0.203     0  02:25      0.0461       0.131      -0.013
  R0019202             JUNCTION     0.026    0.242     0  02:25      0.0141       0.154      -0.520
  R0019373             JUNCTION     0.063    0.063     0  02:25      0.0363      0.0366       2.567
  R0019254             JUNCTION     0.052    0.108     0  02:25      0.0296      0.0644       0.071
  R0019716             JUNCTION     0.078    0.861     0  02:25      0.0458       0.584      -0.029
  R0019946             JUNCTION     0.000    0.865     0  02:26           0       0.584       0.015
  R0013935             JUNCTION     0.050    0.050     0  02:25      0.0283      0.0283       0.076
  R0019939             JUNCTION     0.020    0.065     0  02:25      0.0104      0.0386      -0.078
  R0019944             JUNCTION     0.047    1.072     0  02:26      0.0263       0.747       0.013
  R0043703             JUNCTION     0.056    0.908     0  02:26      0.0321       0.616       0.018
  R0019945             JUNCTION     0.000    1.048     0  02:26           0        0.72      -0.014
  R0039621             JUNCTION     0.000    0.007     0  02:21           0     0.00119       0.673
  R0019838             JUNCTION     0.105    0.105     0  02:25      0.0638       0.065      -0.013
  R0039606             JUNCTION     0.000    0.171     0  02:25           0       0.131       0.094
  R0019204             JUNCTION     0.000    0.000     0  00:00           0           0       0.000 ltr
  R0019205             JUNCTION     0.000    0.000     0  00:00           0           0       0.000 ltr
  R0019849             JUNCTION     0.000    0.162     0  02:25           0       0.105       0.026
  R0019371             JUNCTION     0.000    0.000     0  00:00           0           0       0.000 ltr
  R0019718             JUNCTION     0.067    0.491     0  02:25      0.0393       0.328      -1.613
  R0021442             JUNCTION     0.077    0.159     0  02:25       0.046       0.105       0.068
  R0019247             JUNCTION     0.037    0.188     0  02:25      0.0205       0.125       0.062
  R0019719             JUNCTION     0.039    0.204     0  02:25      0.0216        0.13       0.656
  R0019767             JUNCTION     0.000    1.442     0  02:26           0        1.03      -0.010
  R0019768             JUNCTION     0.000    1.448     0  02:26           0        1.03       0.016
  R0021453             JUNCTION     0.046    0.046     0  02:25      0.0258      0.0258      -0.099
  R0019839             JUNCTION     0.104    0.200     0  02:25      0.0631       0.127      -0.010
  R0019717             JUNCTION     0.128    0.797     0  02:25      0.0791       0.542       0.734
  R0019252             JUNCTION     0.060    0.060     0  02:25      0.0347      0.0347      -0.114
  R0019721             JUNCTION     0.018    0.071     0  02:25     0.00917        0.04       0.019
  R0019942             JUNCTION     0.000    0.103     0  02:25           0      0.0656      -0.384
  R0019206             JUNCTION     0.000    0.000     0  00:00           0           0       0.000 ltr
  R0019840             JUNCTION     0.000    0.308     0  02:25           0        0.22       0.009
  R0043702             JUNCTION     0.104    0.403     0  02:25      0.0631       0.283      -0.001
  R0019723             JUNCTION     0.043    0.055     0  02:25      0.0243      0.0308      -0.093
  R0019724             JUNCTION     0.013    0.013     0  02:25     0.00652     0.00652      -0.102
  R0021433             JUNCTION     0.062    0.062     0  02:25      0.0361      0.0361      -0.259
  R0021435             JUNCTION     0.040    0.092     0  02:25      0.0224      0.0585      -0.035
  R0019769             OUTFALL      0.000    1.455     0  02:26           0        1.03       0.000
  
  
  **********************
  Node Surcharge Summary
  **********************
  
  Surcharging occurs when water rises above the top of the highest conduit.
  ---------------------------------------------------------------------
                                               Max. Height   Min. Depth
                                   Hours       Above Crown    Below Rim
  Node                 Type      Surcharged         Meters       Meters
  ---------------------------------------------------------------------
  R0019466             JUNCTION        0.11          0.456        2.054
  R0019468             JUNCTION        0.11          0.369        2.061
  R0019831             JUNCTION        0.05          0.614        0.746
  R0019825             JUNCTION        0.09          0.806        0.394
  R0019345             JUNCTION        0.05          0.139        1.611
  R0043600             JUNCTION        0.02          0.035        2.545
  R0019373             JUNCTION        0.05          0.231        2.269
  R0019254             JUNCTION        0.07          0.516        1.314
  R0013935             JUNCTION        0.05          0.351        0.969
  R0019939             JUNCTION        0.11          0.523        1.097
  R0019849             JUNCTION        0.13          0.485        1.445
  R0021442             JUNCTION        0.13          1.516        0.234
  R0019247             JUNCTION        0.06          0.373        1.487
  R0019252             JUNCTION        0.05          0.566        1.074
  R0019942             JUNCTION        0.09          0.481        1.169
  R0021433             JUNCTION        0.09          1.609        0.241
  R0021435             JUNCTION        0.12          1.676        0.134
  
  
  *********************
  Node Flooding Summary
  *********************
  
  No nodes were flooded.
  
  
  ***********************
  Outfall Loading Summary
  ***********************
  
  -----------------------------------------------------------
                         Flow       Avg       Max       Total
                         Freq      Flow      Flow      Volume
  Outfall Node           Pcnt       CMS       CMS    10^6 ltr
  -----------------------------------------------------------
  R0019769               4.60     0.082     1.455       1.029
  -----------------------------------------------------------
  System                 4.60     0.082     1.455       1.029
  
  
  ********************
  Link Flow Summary
  ********************
  
  -----------------------------------------------------------------------------
                                 Maximum  Time of Max   Maximum    Max/    Max/
                                  |Flow|   Occurrence   |Veloc|    Full    Full
  Link                 Type          CMS  days hr:min     m/sec    Flow   Depth
  -----------------------------------------------------------------------------
  H0014431             CONDUIT     0.073     0  02:22      1.04    1.36    1.00
  H0014433             CONDUIT     0.052     0  02:25      0.74    0.66    1.00
  H0014352             CONDUIT     1.440     0  02:26      3.14    0.59    0.68
  H0014373             CONDUIT     1.448     0  02:26      4.02    0.67    0.55
  H0017981             CONDUIT     0.107     0  02:25      1.51    3.02    1.00
  H0017755             CONDUIT     0.187     0  02:25      1.49    1.51    0.99
  H0017791             CONDUIT     0.126     0  02:25      0.64    0.18    0.37
  H0017357             CONDUIT     0.062     0  02:25      0.88    0.99    1.00
  H0018216             CONDUIT     0.107     0  02:25      1.51    1.95    1.00
  H0016792             CONDUIT     0.865     0  02:26      2.01    0.50    0.64
  H0019507             CONDUIT     0.046     0  02:25      0.72    0.64    1.00
  H0019998             CONDUIT     1.076     0  02:26      3.32    0.43    0.51
  H0019576             CONDUIT     0.914     0  02:26      2.40    0.61    0.58
  H0020087             CONDUIT     0.007     0  02:26      0.17    0.03    0.49
  H0020211             CONDUIT     0.876     0  02:26      2.00    2.18    0.66
  H0018982             CONDUIT     0.171     0  02:25      0.82    0.27    0.43
  H0018753             CONDUIT     0.038     0  02:22      0.63    0.53    1.00
  H0018845             CONDUIT     0.000     0  00:00      0.00    0.00    0.00
  H0018863             CONDUIT     0.062     0  02:25      0.88    1.46    1.00
  H0019156             CONDUIT     0.000     0  00:00      0.00    0.00    0.00
  H0018929             CONDUIT     0.441     0  02:25      1.29    0.38    0.54
  H0018440             CONDUIT     0.155     0  02:25      2.20    2.78    1.00
  H0018456             CONDUIT     0.173     0  02:25      1.50    1.05    0.87
  H0018968             CONDUIT     1.448     0  02:26      4.61    0.56    0.50
  H0022036             CONDUIT     0.045     0  02:25      0.50    0.03    0.21
  H0021806             CONDUIT     0.188     0  02:25      1.49    1.66    1.00
  H0022111             CONDUIT     0.097     0  02:25      0.84    0.69    0.57
  H0021440             CONDUIT     0.806     0  02:25      2.39    0.52    0.53
  H0021704             CONDUIT     0.498     0  02:26      1.51    0.95    0.53
  H0020521             CONDUIT     0.058     0  02:25      0.82    1.17    1.00
  H0020755             CONDUIT     0.063     0  02:26      0.63    0.70    0.83
  H0020530             CONDUIT     1.457     0  02:27      3.08    1.25    0.70
  H0020618             CONDUIT     1.047     0  02:26      3.11    0.65    0.52
  H0021163             CONDUIT     0.103     0  02:25      1.45    1.72    1.00
  H0020497             CONDUIT     0.000     0  00:00      0.00    0.00    0.85
  H0024325             CONDUIT     0.196     0  02:25      1.88    0.58    0.53
  H0023585             CONDUIT     0.402     0  02:25      2.53    0.92    0.76
  H0024098             CONDUIT     0.161     0  02:25      2.28    1.88    1.00
  H0024235             CONDUIT     0.204     0  02:25      1.46    0.84    0.67
  H0024282             CONDUIT     0.000     0  00:00      0.00    0.00    0.00
  H0024308             CONDUIT     1.455     0  02:26      5.15    0.43    0.46
  H0024498             CONDUIT     0.113     0  02:25      1.60    1.75    1.00
  H0026990             CONDUIT     0.053     0  02:25      0.75    0.40    0.60
  H0041650             CONDUIT     0.240     0  02:25      0.82    0.28    0.47
  H0041011             CONDUIT     0.101     0  02:25      1.43    1.00    1.00
  H0045103             CONDUIT     0.187     0  02:26      0.78    0.23    0.45
  H0045104             CONDUIT     1.442     0  02:26      4.30    0.51    0.52
  H0045105             CONDUIT     0.012     0  02:25      0.38    0.21    0.47
  H0045106             CONDUIT     0.309     0  02:25      2.37    0.42    0.63
  H0045107             CONDUIT     0.054     0  02:25      0.76    0.88    1.00
  H0045108             CONDUIT     0.089     0  02:25      1.26    1.60    1.00
  
  
  ***************************
  Flow Classification Summary
  ***************************
  
  -------------------------------------------------------------------------------------
                      Adjusted    ---------- Fraction of Time in Flow Class ---------- 
                       /Actual         Up    Down  Sub   Sup   Up    Down  Norm  Inlet 
  Conduit               Length    Dry  Dry   Dry   Crit  Crit  Crit  Crit  Ltd   Ctrl  
  -------------------------------------------------------------------------------------
  H0014431                1.00   0.03  0.00  0.00  0.97  0.00  0.00  0.00  0.97  0.00
  H0014433                1.00   0.03  0.00  0.00  0.97  0.00  0.00  0.00  0.97  0.00
  H0014352                1.00   0.03  0.00  0.00  0.95  0.02  0.00  0.00  0.97  0.00
  H0014373                1.00   0.03  0.00  0.00  0.93  0.04  0.00  0.00  0.92  0.00
  H0017981                1.00   0.03  0.00  0.00  0.00  0.00  0.00  0.97  0.00  0.00
  H0017755                1.00   0.03  0.00  0.00  0.00  0.00  0.00  0.97  0.00  0.00
  H0017791                1.00   0.03  0.00  0.00  0.97  0.00  0.00  0.00  0.97  0.00
  H0017357                1.00   0.03  0.97  0.00  0.00  0.00  0.00  0.00  0.97  0.00
  H0018216                1.00   0.03  0.92  0.00  0.05  0.00  0.00  0.00  0.97  0.00
  H0016792                1.00   0.03  0.92  0.00  0.05  0.00  0.00  0.00  0.97  0.00
  H0019507                1.00   0.03  0.00  0.00  0.97  0.00  0.00  0.00  0.97  0.00
  H0019998                1.00   0.03  0.00  0.00  0.93  0.04  0.00  0.00  0.05  0.00
  H0019576                1.00   0.03  0.00  0.00  0.95  0.02  0.00  0.00  0.05  0.00
  H0020087                1.00   0.03  0.96  0.00  0.01  0.00  0.00  0.00  0.97  0.00
  H0020211                1.00   0.03  0.00  0.00  0.97  0.00  0.00  0.00  0.91  0.00
  H0018982                1.00   0.03  0.00  0.00  0.97  0.00  0.00  0.00  0.94  0.00
  H0018753                1.00   0.03  0.00  0.00  0.97  0.00  0.00  0.00  0.97  0.00
  H0018845                1.00   1.00  0.00  0.00  0.00  0.00  0.00  0.00  0.00  0.00
  H0018863                1.00   0.03  0.00  0.00  0.97  0.00  0.00  0.00  0.97  0.00
  H0019156                1.00   1.00  0.00  0.00  0.00  0.00  0.00  0.00  0.00  0.00
  H0018929                1.00   0.03  0.92  0.00  0.05  0.00  0.00  0.00  0.97  0.00
  H0018440                1.00   0.03  0.00  0.00  0.97  0.00  0.00  0.00  0.97  0.00
  H0018456                1.00   0.03  0.00  0.00  0.97  0.00  0.00  0.00  0.97  0.00
  H0018968                1.00   0.03  0.00  0.00  0.93  0.04  0.00  0.00  0.93  0.00
  H0022036                1.00   0.03  0.00  0.00  0.01  0.00  0.00  0.96  0.01  0.00
  H0021806                1.00   0.03  0.92  0.00  0.05  0.00  0.00  0.00  0.96  0.00
  H0022111                1.00   0.03  0.00  0.00  0.97  0.00  0.00  0.00  0.00  0.00
  H0021440                1.00   0.03  0.00  0.00  0.95  0.02  0.00  0.00  0.02  0.00
  H0021704                1.00   0.03  0.00  0.00  0.00  0.00  0.00  0.97  0.00  0.00
  H0020521                1.00   0.03  0.00  0.00  0.97  0.00  0.00  0.00  0.97  0.00
  H0020755                1.00   0.03  0.93  0.00  0.04  0.00  0.00  0.00  0.97  0.00
  H0020530                1.00   0.03  0.00  0.00  0.95  0.02  0.00  0.00  0.01  0.00
  H0020618                1.00   0.03  0.00  0.00  0.94  0.03  0.00  0.00  0.93  0.00
  H0021163                1.00   0.03  0.00  0.00  0.96  0.01  0.00  0.00  0.94  0.00
  H0020497                1.20   0.03  0.97  0.00  0.00  0.00  0.00  0.00  0.00  0.00
  H0024325                1.00   0.03  0.00  0.00  0.95  0.02  0.00  0.00  0.94  0.00
  H0023585                1.00   0.03  0.00  0.00  0.00  0.00  0.00  0.97  0.00  0.00
  H0024098                1.00   0.03  0.93  0.00  0.04  0.00  0.00  0.00  0.97  0.00
  H0024235                1.00   0.03  0.00  0.00  0.00  0.00  0.00  0.97  0.00  0.00
  H0024282                1.00   1.00  0.00  0.00  0.00  0.00  0.00  0.00  0.00  0.00
  H0024308                1.00   0.03  0.00  0.00  0.92  0.06  0.00  0.00  0.01  0.00
  H0024498                1.00   0.03  0.00  0.00  0.00  0.00  0.00  0.97  0.00  0.00
  H0026990                1.00   0.03  0.00  0.00  0.97  0.00  0.00  0.00  0.97  0.00
  H0041650                1.00   0.95  0.01  0.00  0.04  0.00  0.00  0.00  0.96  0.00
  H0041011                1.00   0.03  0.00  0.00  0.97  0.00  0.00  0.00  0.97  0.00
  H0045103                1.00   0.03  0.00  0.00  0.97  0.00  0.00  0.00  0.95  0.00
  H0045104                1.00   0.03  0.00  0.00  0.93  0.04  0.00  0.00  0.05  0.00
  H0045105                1.00   0.03  0.00  0.00  0.97  0.00  0.00  0.00  0.97  0.00
  H0045106                1.00   0.03  0.93  0.00  0.02  0.03  0.00  0.00  0.97  0.00
  H0045107                1.00   0.03  0.00  0.00  0.97  0.00  0.00  0.00  0.97  0.00
  H0045108                1.00   0.03  0.00  0.00  0.97  0.00  0.00  0.00  0.97  0.00
  
  
  *************************
  Conduit Surcharge Summary
  *************************
  
  ----------------------------------------------------------------------------
                                                           Hours        Hours 
                         --------- Hours Full --------   Above Full   Capacity
  Conduit                Both Ends  Upstream  Dnstream   Normal Flow   Limited
  ----------------------------------------------------------------------------
  H0014431                    0.11      0.11      0.11      0.13         0.11
  H0014433                    0.05      0.05      0.09      0.01         0.01
  H0017981                    0.01      0.05      0.01      0.14         0.04
  H0017755                    0.01      0.02      0.01      0.08         0.01
  H0017357                    0.01      0.01      0.05      0.01         0.01
  H0018216                    0.05      0.07      0.05      0.10         0.07
  H0019507                    0.05      0.05      0.11      0.01         0.01
  H0020211                    0.01      0.01      0.01      0.12         0.01
  H0018753                    0.05      0.05      0.11      0.01         0.01
  H0018863                    0.11      0.11      0.13      0.05         0.05
  H0018440                    0.10      0.13      0.10      0.16         0.12
  H0018456                    0.01      0.01      0.01      0.02         0.01
  H0021806                    0.02      0.06      0.02      0.09         0.05
  H0020521                    0.05      0.05      0.07      0.03         0.03
  H0020530                    0.01      0.01      0.01      0.05         0.01
  H0021163                    0.08      0.09      0.09      0.09         0.07
  H0024098                    0.13      0.13      0.15      0.10         0.09
  H0024498                    0.01      0.11      0.01      0.14         0.08
  H0041011                    0.09      0.09      0.13      0.01         0.01
  H0045107                    0.09      0.09      0.12      0.01         0.01
  H0045108                    0.12      0.12      0.13      0.08         0.08
  

  Analysis begun on:  Fri Mar 22 15:56:50 2024
  Analysis ended on:  Fri Mar 22 15:56:59 2024
  Total elapsed time: 00:00:09