
  EPA STORM WATER MANAGEMENT MODEL - VERSION 5.2 (Build 5.2.4)
  PYSWMM TOOLKIT API - VERSION v1.0 (2023-11-27)
  ------------------------------------------------------------

  Gievenbeck_2021-07-14 10 20 00_hN23 4 
  
  ****************
  Analysis Options
  ****************
  Flow Units ............... CMS
  Process Models:
    Rainfall/Runoff ........ YES
    RDII ................... NO
    Snowmelt ............... NO
    Groundwater ............ NO
    Flow Routing ........... YES
    Ponding Allowed ........ NO
    Water Quality .......... NO
  Infiltration Method ...... HORTON
  Flow Routing Method ...... DYNWAVE
  Surcharge Method ......... SLOT
  Starting Date ............ 01/01/2024 00:00:00
  Ending Date .............. 01/04/2024 04:00:00
  Antecedent Dry Days ...... 14.0
  Report Time Step ......... 00:01:00
  Wet Time Step ............ 00:01:00
  Dry Time Step ............ 00:01:00
  Routing Time Step ........ 1.00 sec
  Variable Time Step ....... YES
  Maximum Trials ........... 8
  Number of Threads ........ 1
  Head Tolerance ........... 0.001500 m
  
  
  **************************        Volume         Depth
  Runoff Quantity Continuity     hectare-m            mm
  **************************     ---------       -------
  Total Precipitation ......         0.237        23.400
  Evaporation Loss .........         0.010         1.009
  Infiltration Loss ........         0.134        13.240
  Surface Runoff ...........         0.093         9.169
  Final Storage ............         0.000         0.000
  Continuity Error (%) .....        -0.075
  
  
  **************************        Volume        Volume
  Flow Routing Continuity        hectare-m      10^6 ltr
  **************************     ---------     ---------
  Dry Weather Inflow .......         0.000         0.000
  Wet Weather Inflow .......         0.093         0.928
  Groundwater Inflow .......         0.000         0.000
  RDII Inflow ..............         0.000         0.000
  External Inflow ..........         0.000         0.000
  External Outflow .........         0.093         0.929
  Flooding Loss ............         0.000         0.000
  Evaporation Loss .........         0.000         0.000
  Exfiltration Loss ........         0.000         0.000
  Initial Stored Volume ....         0.000         0.000
  Final Stored Volume ......         0.000         0.000
  Continuity Error (%) .....        -0.125
  
  
  *************************
  Highest Continuity Errors
  *************************
  Node R0019718 (-1.65%)
  
  
  ***************************
  Time-Step Critical Elements
  ***************************
  None
  
  
  ********************************
  Highest Flow Instability Indexes
  ********************************
  All links are stable.
  
  
  *********************************
  Most Frequent Nonconverging Nodes
  *********************************
  Convergence obtained at all time steps.
  
  
  *************************
  Routing Time Step Summary
  *************************
  Minimum Time Step           :     0.11 sec
  Average Time Step           :     1.00 sec
  Maximum Time Step           :     1.00 sec
  % of Time in Steady State   :     0.00
  Average Iterations per Step :     2.00
  % of Steps Not Converging   :     0.00
  Time Step Frequencies       :
      1.000 -  0.871 sec      :   100.00 %
      0.871 -  0.758 sec      :     0.00 %
      0.758 -  0.660 sec      :     0.00 %
      0.660 -  0.574 sec      :     0.00 %
      0.574 -  0.500 sec      :     0.00 %
  
  
  ***************************
  Subcatchment Runoff Summary
  ***************************
  
  ------------------------------------------------------------------------------------------------------------------------------
                            Total      Total      Total      Total     Imperv       Perv      Total       Total     Peak  Runoff
                           Precip      Runon       Evap      Infil     Runoff     Runoff     Runoff      Runoff   Runoff   Coeff
  Subcatchment                 mm         mm         mm         mm         mm         mm         mm    10^6 ltr      CMS
  ------------------------------------------------------------------------------------------------------------------------------
  EZG_368                   23.40       0.00       1.00      13.31      10.71       0.00       9.11        0.04     0.04   0.389
  EZG_392                   23.40       0.00       1.00      13.30      10.72       0.00       9.11        0.03     0.03   0.389
  EZG_352                   23.40       0.00       1.01      13.31      10.71       0.00       9.10        0.05     0.05   0.389
  EZG_372                   23.40       0.00       0.99      13.30      10.73       0.01       9.13        0.01     0.01   0.390
  EZG_416                   23.40       0.00       1.00      13.30      10.72       0.00       9.12        0.03     0.03   0.390
  EZG_388                   23.40       0.00       1.00      13.31      10.71       0.00       9.11        0.04     0.04   0.389
  EZG_394                   23.40       0.00       1.00      13.30      10.72       0.00       9.12        0.03     0.03   0.390
  EZG_400                   23.40       0.00       1.00      13.30      10.72       0.00       9.12        0.02     0.02   0.390
  EZG_390                   23.40       0.00       1.00      13.30      10.72       0.00       9.11        0.03     0.03   0.390
  EZG_350                   23.40       0.00       1.00      13.31      10.71       0.00       9.11        0.04     0.04   0.389
  EZG_370                   23.40       0.00       1.00      13.31      10.72       0.00       9.11        0.03     0.03   0.389
  EZG_398                   23.40       0.00       0.99      13.30      10.74       0.01       9.14        0.01     0.01   0.391
  EZG_382                   23.40       0.00       0.99      13.30      10.74       0.02       9.14        0.01     0.01   0.391
  EZG_374                   23.40       0.00       1.21      11.26      12.85       0.03      10.95        0.04     0.04   0.468
  EZG_412                   23.40       0.00       0.98      13.29      10.75       0.03       9.17        0.00     0.00   0.392
  EZG_344                   23.40       0.00       1.00      13.30      10.72       0.00       9.12        0.02     0.02   0.390
  EZG_376                   23.40       0.00       0.99      13.30      10.73       0.01       9.12        0.02     0.02   0.390
  EZG_356                   23.40       0.00       1.01      13.31      10.71       0.00       9.10        0.06     0.06   0.389
  EZG_386                   23.40       0.00       1.01      13.30      10.70       0.00       9.10        0.07     0.07   0.389
  EZG_380                   23.40       0.00       1.00      13.31      10.72       0.00       9.11        0.04     0.04   0.389
  EZG_378                   23.40       0.00       1.00      13.31      10.72       0.00       9.11        0.03     0.03   0.389
  EZG_414                   23.40       0.00       0.99      13.30      10.74       0.02       9.14        0.01     0.01   0.391
  EZG_402                   23.40       0.00       1.00      13.30      10.72       0.00       9.11        0.03     0.03   0.389
  EZG_358                   23.40       0.00       1.01      13.31      10.71       0.00       9.10        0.06     0.06   0.389
  EZG_364                   23.40       0.00       1.01      13.31      10.71       0.00       9.10        0.06     0.06   0.389
  EZG_410                   23.40       0.00       0.99      13.30      10.73       0.01       9.12        0.02     0.02   0.390
  EZG_366                   23.40       0.00       1.00      13.30      10.72       0.01       9.12        0.02     0.02   0.390
  EZG_18259                 23.40       0.00       1.00      13.30      10.72       0.01       9.12        0.02     0.02   0.390
  EZG_18258                 23.40       0.00       0.98      13.29      10.74       0.02       9.15        0.01     0.01   0.391
  EZG_346                   23.40       0.00       0.98      13.51      10.50       0.00       8.93        0.03     0.03   0.382
  EZG_348                   23.40       0.00       0.97      13.51      10.51       0.00       8.94        0.02     0.02   0.382
  
  
  ******************
  Node Depth Summary
  ******************
  
  ---------------------------------------------------------------------------------
                                 Average  Maximum  Maximum  Time of Max    Reported
                                   Depth    Depth      HGL   Occurrence   Max Depth
  Node                 Type       Meters   Meters   Meters  days hr:min      Meters
  ---------------------------------------------------------------------------------
  R0019466             JUNCTION     0.00     0.38    69.83     0  05:25        0.38
  R0019468             JUNCTION     0.00     0.34    69.65     0  05:25        0.32
  R0019831             JUNCTION     0.00     0.13    69.30     0  05:25        0.13
  R0019825             JUNCTION     0.00     0.24    69.08     0  05:25        0.24
  R0019843             JUNCTION     0.00     0.35    67.98     0  05:26        0.35
  R0019368             JUNCTION     0.01     0.53    67.32     0  05:27        0.53
  R0019369             JUNCTION     0.00     0.38    66.97     0  05:27        0.38
  R0019370             JUNCTION     0.00     0.32    66.22     0  05:27        0.32
  R0019345             JUNCTION     0.00     0.24    70.14     0  05:25        0.24
  R0019346             JUNCTION     0.00     0.22    70.02     0  05:25        0.22
  R0043600             JUNCTION     0.00     0.24    69.91     0  05:26        0.24
  R0019203             JUNCTION     0.00     0.28    69.82     0  05:26        0.28
  R0043594             JUNCTION     0.00     0.20    69.93     0  05:25        0.20
  R0021458             JUNCTION     0.00     0.25    69.90     0  05:25        0.25
  R0019202             JUNCTION     0.00     0.25    69.83     0  05:26        0.25
  R0019373             JUNCTION     0.00     0.17    69.84     0  05:25        0.17
  R0019254             JUNCTION     0.00     0.25    70.29     0  05:25        0.25
  R0019716             JUNCTION     0.00     0.32    69.33     0  05:26        0.32
  R0019946             JUNCTION     0.01     0.46    69.08     0  05:26        0.46
  R0013935             JUNCTION     0.00     0.13    68.96     0  05:25        0.13
  R0019939             JUNCTION     0.00     0.30    68.87     0  05:26        0.29
  R0019944             JUNCTION     0.00     0.29    68.57     0  05:26        0.29
  R0043703             JUNCTION     0.00     0.35    68.95     0  05:26        0.35
  R0019945             JUNCTION     0.00     0.36    68.76     0  05:26        0.36
  R0039621             JUNCTION     0.00     0.11    69.68     0  05:25        0.10
  R0019838             JUNCTION     0.00     0.21    69.67     0  05:25        0.21
  R0039606             JUNCTION     0.00     0.25    69.84     0  05:26        0.25
  R0019204             JUNCTION     0.00     0.00    69.91     0  00:00        0.00
  R0019205             JUNCTION     0.00     0.00    69.62     0  00:00        0.00
  R0019849             JUNCTION     0.00     0.33    68.85     0  05:26        0.33
  R0019371             JUNCTION     0.00     0.00    70.41     0  00:00        0.00
  R0019718             JUNCTION     0.01     0.36    69.78     0  05:26        0.36
  R0021442             JUNCTION     0.00     0.48    70.53     0  05:25        0.47
  R0019247             JUNCTION     0.00     0.29    70.17     0  05:25        0.29
  R0019719             JUNCTION     0.00     0.23    69.91     0  05:25        0.23
  R0019767             JUNCTION     0.00     0.34    65.07     0  05:27        0.34
  R0019768             JUNCTION     0.00     0.29    64.06     0  05:27        0.29
  R0021453             JUNCTION     0.00     0.09    70.04     0  05:25        0.09
  R0019839             JUNCTION     0.00     0.20    69.59     0  05:25        0.19
  R0019717             JUNCTION     0.00     0.32    69.66     0  05:25        0.32
  R0019252             JUNCTION     0.00     0.17    70.36     0  05:25        0.17
  R0019721             JUNCTION     0.00     0.18    70.05     0  05:25        0.18
  R0019942             JUNCTION     0.00     0.21    68.86     0  05:26        0.20
  R0019206             JUNCTION     0.00     0.00    69.07     0  00:00        0.00
  R0019840             JUNCTION     0.00     0.18    69.15     0  05:25        0.17
  R0043702             JUNCTION     0.00     0.27    68.97     0  05:25        0.26
  R0019723             JUNCTION     0.00     0.13    70.21     0  05:25        0.13
  R0019724             JUNCTION     0.00     0.07    70.23     0  05:25        0.07
  R0021433             JUNCTION     0.00     0.26    70.65     0  05:25        0.24
  R0021435             JUNCTION     0.00     0.42    70.60     0  05:25        0.41
  R0019769             OUTFALL      0.00     0.29    63.67     0  05:27        0.29
  
  
  *******************
  Node Inflow Summary
  *******************
  
  -------------------------------------------------------------------------------------------------
                                  Maximum  Maximum                  Lateral       Total        Flow
                                  Lateral    Total  Time of Max      Inflow      Inflow     Balance
                                   Inflow   Inflow   Occurrence      Volume      Volume       Error
  Node                 Type           CMS      CMS  days hr:min    10^6 ltr    10^6 ltr     Percent
  -------------------------------------------------------------------------------------------------
  R0019466             JUNCTION     0.039    0.070     0  05:24      0.0376      0.0703       0.025
  R0019468             JUNCTION     0.023    0.087     0  05:25      0.0218      0.0921      -0.005
  R0019831             JUNCTION     0.031    0.031     0  05:25      0.0295      0.0295      -0.081
  R0019825             JUNCTION     0.031    0.061     0  05:25      0.0296      0.0591       0.012
  R0019843             JUNCTION     0.000    0.781     0  05:26           0       0.929      -0.012
  R0019368             JUNCTION     0.000    0.780     0  05:26           0       0.929       0.001
  R0019369             JUNCTION     0.000    0.798     0  05:27           0       0.929      -0.007
  R0019370             JUNCTION     0.000    0.781     0  05:27           0       0.929       0.011
  R0019345             JUNCTION     0.000    0.056     0  05:25           0      0.0578       0.072
  R0019346             JUNCTION     0.004    0.094     0  05:25     0.00366      0.0967       0.035
  R0043600             JUNCTION     0.000    0.097     0  05:25           0       0.112       0.104
  R0019203             JUNCTION     0.009    0.216     0  05:26     0.00808       0.251      -0.012
  R0043594             JUNCTION     0.053    0.077     0  05:25      0.0538      0.0768      -0.150
  R0021458             JUNCTION     0.042    0.113     0  05:25      0.0418       0.119      -0.031
  R0019202             JUNCTION     0.013    0.115     0  05:26      0.0124       0.131      -0.026
  R0019373             JUNCTION     0.034    0.034     0  05:25      0.0327      0.0327      -0.005
  R0019254             JUNCTION     0.028    0.059     0  05:25      0.0266      0.0578      -0.033
  R0019716             JUNCTION     0.042    0.439     0  05:25      0.0415       0.518      -0.030
  R0019946             JUNCTION     0.000    0.440     0  05:26           0       0.518       0.024
  R0013935             JUNCTION     0.027    0.027     0  05:25      0.0253      0.0253      -0.081
  R0019939             JUNCTION     0.010    0.036     0  05:25     0.00905      0.0344      -0.016
  R0019944             JUNCTION     0.025    0.560     0  05:26      0.0235       0.664       0.007
  R0043703             JUNCTION     0.030    0.467     0  05:26      0.0288       0.547       0.010
  R0019945             JUNCTION     0.000    0.545     0  05:26           0        0.64      -0.004
  R0039621             JUNCTION     0.000    0.004     0  05:22           0    0.000556       1.188
  R0019838             JUNCTION     0.057    0.057     0  05:25      0.0583      0.0589      -0.013
  R0039606             JUNCTION     0.000    0.107     0  05:25           0       0.119       0.132
  R0019204             JUNCTION     0.000    0.000     0  00:00           0           0       0.000 ltr
  R0019205             JUNCTION     0.000    0.000     0  00:00           0           0       0.000 ltr
  R0019849             JUNCTION     0.000    0.086     0  05:25           0      0.0935       0.035
  R0019371             JUNCTION     0.000    0.000     0  00:00           0           0       0.000 ltr
  R0019718             JUNCTION     0.037    0.244     0  05:26      0.0355       0.287      -1.619
  R0021442             JUNCTION     0.042    0.083     0  05:25      0.0415      0.0939       0.021
  R0019247             JUNCTION     0.020    0.101     0  05:25      0.0182       0.112      -0.096
  R0019719             JUNCTION     0.021    0.110     0  05:25      0.0192       0.116      -0.017
  R0019767             JUNCTION     0.000    0.780     0  05:27           0       0.929      -0.007
  R0019768             JUNCTION     0.000    0.780     0  05:27           0       0.929       0.016
  R0021453             JUNCTION     0.024    0.024     0  05:25      0.0231      0.0231       0.160
  R0019839             JUNCTION     0.057    0.108     0  05:25      0.0576       0.116      -0.031
  R0019717             JUNCTION     0.070    0.405     0  05:26      0.0726        0.48       0.747
  R0019252             JUNCTION     0.032    0.032     0  05:25      0.0312      0.0312      -0.077
  R0019721             JUNCTION     0.009    0.037     0  05:25     0.00795      0.0353       0.025
  R0019942             JUNCTION     0.000    0.059     0  05:25           0      0.0591       0.033
  R0019206             JUNCTION     0.000    0.000     0  00:00           0           0       0.000 ltr
  R0019840             JUNCTION     0.000    0.190     0  05:25           0       0.208       0.022
  R0043702             JUNCTION     0.057    0.241     0  05:25      0.0577       0.266      -0.009
  R0019723             JUNCTION     0.023    0.029     0  05:25      0.0217      0.0273      -0.131
  R0019724             JUNCTION     0.006    0.006     0  05:25      0.0056      0.0056      -0.148
  R0021433             JUNCTION     0.034    0.034     0  05:25      0.0325      0.0325      -0.249
  R0021435             JUNCTION     0.021    0.053     0  05:24      0.0199      0.0524       0.089
  R0019769             OUTFALL      0.000    0.781     0  05:27           0       0.929       0.000
  
  
  **********************
  Node Surcharge Summary
  **********************
  
  Surcharging occurs when water rises above the top of the highest conduit.
  ---------------------------------------------------------------------
                                               Max. Height   Min. Depth
                                   Hours       Above Crown    Below Rim
  Node                 Type      Surcharged         Meters       Meters
  ---------------------------------------------------------------------
  R0019466             JUNCTION        0.05          0.081        2.429
  R0019468             JUNCTION        0.04          0.042        2.388
  R0019849             JUNCTION        0.05          0.034        1.896
  R0021442             JUNCTION        0.09          0.177        1.573
  R0021435             JUNCTION        0.05          0.119        1.691
  
  
  *********************
  Node Flooding Summary
  *********************
  
  No nodes were flooded.
  
  
  ***********************
  Outfall Loading Summary
  ***********************
  
  -----------------------------------------------------------
                         Flow       Avg       Max       Total
                         Freq      Flow      Flow      Volume
  Outfall Node           Pcnt       CMS       CMS    10^6 ltr
  -----------------------------------------------------------
  R0019769               8.19     0.041     0.781       0.929
  -----------------------------------------------------------
  System                 8.19     0.041     0.781       0.929
  
  
  ********************
  Link Flow Summary
  ********************
  
  -----------------------------------------------------------------------------
                                 Maximum  Time of Max   Maximum    Max/    Max/
                                  |Flow|   Occurrence   |Veloc|    Full    Full
  Link                 Type          CMS  days hr:min     m/sec    Flow   Depth
  -----------------------------------------------------------------------------
  H0014431             CONDUIT     0.064     0  05:25      0.91    1.19    1.00
  H0014433             CONDUIT     0.030     0  05:25      0.68    0.39    0.61
  H0014352             CONDUIT     0.780     0  05:26      2.55    0.32    0.49
  H0014373             CONDUIT     0.781     0  05:27      3.42    0.36    0.39
  H0017981             CONDUIT     0.056     0  05:25      1.04    1.59    0.71
  H0017755             CONDUIT     0.096     0  05:26      1.26    0.78    0.58
  H0017791             CONDUIT     0.072     0  05:25      0.57    0.10    0.25
  H0017357             CONDUIT     0.000     0  05:25      0.01    0.00    0.30
  H0018216             CONDUIT     0.056     0  05:25      0.91    1.03    0.82
  H0016792             CONDUIT     0.440     0  05:26      1.67    0.25    0.43
  H0019507             CONDUIT     0.026     0  05:25      0.65    0.37    0.68
  H0019998             CONDUIT     0.560     0  05:26      2.76    0.22    0.35
  H0019576             CONDUIT     0.469     0  05:26      2.01    0.32    0.39
  H0020087             CONDUIT     0.004     0  05:22      0.15    0.02    0.32
  H0020211             CONDUIT     0.446     0  05:26      1.62    1.11    0.45
  H0018982             CONDUIT     0.107     0  05:25      0.75    0.17    0.28
  H0018753             CONDUIT     0.032     0  05:24      0.59    0.46    0.89
  H0018845             CONDUIT     0.000     0  00:00      0.00    0.00    0.00
  H0018863             CONDUIT     0.030     0  05:24      0.57    0.72    1.00
  H0019156             CONDUIT     0.000     0  00:00      0.00    0.00    0.00
  H0018929             CONDUIT     0.217     0  05:26      1.07    0.19    0.36
  H0018440             CONDUIT     0.083     0  05:25      1.17    1.48    1.00
  H0018456             CONDUIT     0.094     0  05:25      1.27    0.57    0.57
  H0018968             CONDUIT     0.780     0  05:27      3.89    0.30    0.35
  H0022036             CONDUIT     0.024     0  05:25      0.50    0.02    0.14
  H0021806             CONDUIT     0.097     0  05:25      1.10    0.86    0.66
  H0022111             CONDUIT     0.053     0  05:25      0.71    0.38    0.41
  H0021440             CONDUIT     0.407     0  05:26      2.03    0.26    0.35
  H0021704             CONDUIT     0.243     0  05:26      1.19    0.46    0.36
  H0020521             CONDUIT     0.032     0  05:25      0.59    0.64    0.71
  H0020755             CONDUIT     0.035     0  05:25      0.56    0.38    0.50
  H0020530             CONDUIT     0.798     0  05:27      2.50    0.68    0.50
  H0020618             CONDUIT     0.544     0  05:26      2.63    0.34    0.36
  H0021163             CONDUIT     0.059     0  05:25      1.14    0.98    0.70
  H0020497             CONDUIT     0.000     0  00:00      0.00    0.00    0.58
  H0024325             CONDUIT     0.107     0  05:25      1.61    0.32    0.37
  H0023585             CONDUIT     0.240     0  05:25      2.27    0.55    0.53
  H0024098             CONDUIT     0.081     0  05:24      1.25    0.95    1.00
  H0024235             CONDUIT     0.110     0  05:26      1.26    0.45    0.46
  H0024282             CONDUIT     0.000     0  00:00      0.00    0.00    0.00
  H0024308             CONDUIT     0.781     0  05:27      4.35    0.23    0.33
  H0024498             CONDUIT     0.083     0  05:25      1.20    1.28    0.94
  H0026990             CONDUIT     0.029     0  05:25      0.67    0.22    0.38
  H0041650             CONDUIT     0.114     0  05:26      0.72    0.13    0.30
  H0041011             CONDUIT     0.056     0  05:25      1.05    0.56    0.90
  H0045103             CONDUIT     0.105     0  05:26      0.73    0.13    0.28
  H0045104             CONDUIT     0.780     0  05:27      3.64    0.28    0.37
  H0045105             CONDUIT     0.006     0  05:25      0.33    0.11    0.32
  H0045106             CONDUIT     0.190     0  05:25      2.26    0.26    0.44
  H0045107             CONDUIT     0.032     0  05:24      0.69    0.53    1.00
  H0045108             CONDUIT     0.046     0  05:25      0.67    0.83    1.00
  
  
  ***************************
  Flow Classification Summary
  ***************************
  
  -------------------------------------------------------------------------------------
                      Adjusted    ---------- Fraction of Time in Flow Class ---------- 
                       /Actual         Up    Down  Sub   Sup   Up    Down  Norm  Inlet 
  Conduit               Length    Dry  Dry   Dry   Crit  Crit  Crit  Crit  Ltd   Ctrl  
  -------------------------------------------------------------------------------------
  H0014431                1.00   0.07  0.00  0.00  0.93  0.00  0.00  0.00  0.92  0.00
  H0014433                1.00   0.07  0.00  0.00  0.93  0.00  0.00  0.00  0.93  0.00
  H0014352                1.00   0.07  0.00  0.00  0.88  0.06  0.00  0.00  0.93  0.00
  H0014373                1.00   0.07  0.00  0.00  0.85  0.08  0.00  0.00  0.84  0.00
  H0017981                1.00   0.07  0.00  0.00  0.00  0.00  0.00  0.93  0.00  0.00
  H0017755                1.00   0.07  0.00  0.00  0.00  0.00  0.00  0.93  0.00  0.00
  H0017791                1.00   0.07  0.00  0.00  0.93  0.00  0.00  0.00  0.93  0.00
  H0017357                1.00   0.07  0.93  0.00  0.00  0.00  0.00  0.00  0.93  0.00
  H0018216                1.00   0.07  0.85  0.00  0.08  0.00  0.00  0.00  0.93  0.00
  H0016792                1.00   0.07  0.84  0.00  0.09  0.00  0.00  0.00  0.93  0.00
  H0019507                1.00   0.07  0.00  0.00  0.93  0.00  0.00  0.00  0.93  0.00
  H0019998                1.00   0.07  0.00  0.00  0.86  0.08  0.00  0.00  0.09  0.00
  H0019576                1.00   0.07  0.00  0.00  0.89  0.04  0.00  0.00  0.08  0.00
  H0020087                1.00   0.07  0.92  0.00  0.01  0.00  0.00  0.00  0.93  0.00
  H0020211                1.00   0.07  0.00  0.00  0.93  0.00  0.00  0.00  0.84  0.00
  H0018982                1.00   0.07  0.00  0.00  0.93  0.00  0.00  0.00  0.86  0.00
  H0018753                1.00   0.07  0.00  0.00  0.93  0.00  0.00  0.00  0.93  0.00
  H0018845                1.00   1.00  0.00  0.00  0.00  0.00  0.00  0.00  0.00  0.00
  H0018863                1.00   0.07  0.00  0.00  0.93  0.00  0.00  0.00  0.92  0.00
  H0019156                1.00   1.00  0.00  0.00  0.00  0.00  0.00  0.00  0.00  0.00
  H0018929                1.00   0.07  0.85  0.00  0.08  0.00  0.00  0.00  0.93  0.00
  H0018440                1.00   0.07  0.00  0.00  0.93  0.00  0.00  0.00  0.92  0.00
  H0018456                1.00   0.07  0.00  0.00  0.93  0.00  0.00  0.00  0.93  0.00
  H0018968                1.00   0.07  0.00  0.00  0.85  0.08  0.00  0.00  0.86  0.00
  H0022036                1.00   0.07  0.00  0.00  0.01  0.01  0.00  0.91  0.01  0.00
  H0021806                1.00   0.07  0.85  0.00  0.08  0.00  0.00  0.00  0.91  0.00
  H0022111                1.00   0.07  0.00  0.00  0.93  0.00  0.00  0.00  0.00  0.00
  H0021440                1.00   0.07  0.00  0.00  0.88  0.05  0.00  0.00  0.03  0.00
  H0021704                1.00   0.07  0.00  0.00  0.00  0.00  0.00  0.93  0.00  0.00
  H0020521                1.00   0.07  0.00  0.00  0.93  0.00  0.00  0.00  0.93  0.00
  H0020755                1.00   0.07  0.85  0.00  0.08  0.00  0.00  0.00  0.93  0.00
  H0020530                1.00   0.07  0.00  0.00  0.88  0.05  0.00  0.00  0.01  0.00
  H0020618                1.00   0.07  0.00  0.00  0.86  0.07  0.00  0.00  0.85  0.00
  H0021163                1.00   0.07  0.00  0.00  0.92  0.01  0.00  0.00  0.86  0.00
  H0020497                1.20   0.07  0.93  0.00  0.00  0.00  0.00  0.00  0.00  0.00
  H0024325                1.00   0.07  0.00  0.00  0.88  0.06  0.00  0.00  0.86  0.00
  H0023585                1.00   0.07  0.00  0.00  0.00  0.00  0.00  0.93  0.00  0.00
  H0024098                1.00   0.07  0.85  0.00  0.08  0.00  0.00  0.00  0.93  0.00
  H0024235                1.00   0.07  0.00  0.00  0.00  0.00  0.00  0.93  0.00  0.00
  H0024282                1.00   1.00  0.00  0.00  0.00  0.00  0.00  0.00  0.00  0.00
  H0024308                1.00   0.07  0.00  0.00  0.84  0.09  0.00  0.00  0.03  0.00
  H0024498                1.00   0.07  0.00  0.00  0.00  0.00  0.00  0.93  0.00  0.00
  H0026990                1.00   0.07  0.00  0.00  0.93  0.00  0.00  0.00  0.93  0.00
  H0041650                1.00   0.92  0.01  0.00  0.07  0.00  0.00  0.00  0.92  0.00
  H0041011                1.00   0.07  0.00  0.00  0.93  0.00  0.00  0.00  0.93  0.00
  H0045103                1.00   0.07  0.00  0.00  0.93  0.00  0.00  0.00  0.89  0.00
  H0045104                1.00   0.07  0.00  0.00  0.85  0.08  0.00  0.00  0.09  0.00
  H0045105                1.00   0.07  0.00  0.00  0.93  0.00  0.00  0.00  0.93  0.00
  H0045106                1.00   0.07  0.85  0.00  0.02  0.06  0.00  0.00  0.93  0.00
  H0045107                1.00   0.07  0.00  0.00  0.93  0.00  0.00  0.00  0.93  0.00
  H0045108                1.00   0.07  0.00  0.00  0.93  0.00  0.00  0.00  0.93  0.00
  
  
  *************************
  Conduit Surcharge Summary
  *************************
  
  ----------------------------------------------------------------------------
                                                           Hours        Hours 
                         --------- Hours Full --------   Above Full   Capacity
  Conduit                Both Ends  Upstream  Dnstream   Normal Flow   Limited
  ----------------------------------------------------------------------------
  H0014431                    0.04      0.05      0.04      0.07         0.05
  H0017981                    0.01      0.01      0.01      0.10         0.01
  H0018216                    0.01      0.01      0.01      0.02         0.01
  H0020211                    0.01      0.01      0.01      0.05         0.01
  H0018753                    0.01      0.01      0.05      0.01         0.01
  H0018863                    0.01      0.01      0.05      0.01         0.01
  H0018440                    0.01      0.09      0.01      0.13         0.07
  H0024098                    0.05      0.05      0.11      0.01         0.01
  H0024498                    0.01      0.04      0.01      0.09         0.01
  H0041011                    0.01      0.01      0.05      0.01         0.01
  H0045107                    0.01      0.01      0.05      0.01         0.01
  H0045108                    0.05      0.05      0.09      0.01         0.01
  

  Analysis begun on:  Fri Mar 22 15:55:04 2024
  Analysis ended on:  Fri Mar 22 15:55:15 2024
  Total elapsed time: 00:00:11